   Input file: ../examples/ex10
  Output file: ex10.out
Database file: ../database/phreeqc.dat

------------------
Reading data base.
------------------

	SOLUTION_MASTER_SPECIES
	SOLUTION_SPECIES
	PHASES
	GAS_BINARY_PARAMETERS
	EXCHANGE_MASTER_SPECIES
	EXCHANGE_SPECIES
	SURFACE_MASTER_SPECIES
	SURFACE_SPECIES
	MEAN_GAMMAS
	RATES
	END
------------------------------------
Reading input data for simulation 1.
------------------------------------

	TITLE Example 10.--Solid solution of strontianite and aragonite.
	PHASES
	        Strontianite
	                SrCO3 = CO3-2 + Sr+2
	                log_k           -9.271
	        Aragonite
	                CaCO3 = CO3-2 + Ca+2
	                log_k           -8.336
	END
-----
TITLE
-----

 Example 10.--Solid solution of strontianite and aragonite.

------------------
End of simulation.
------------------

------------------------------------
Reading input data for simulation 2.
------------------------------------

	SOLID_SOLUTIONS 1
	        Ca(x)Sr(1-x)CO3 
	                comp1   Aragonite       0 
	                comp2   Strontianite    0 
	                gugg_nondimensional   3.43    -1.82
	END
---------------------------------------------
Description of Solid Solution Ca(x)Sr(1-x)CO3
---------------------------------------------

	                              Temperature: 298.15 kelvin
	                       A0 (dimensionless): 3.43
	                       A1 (dimensionless): -1.82
	                              A0 (kJ/mol): 8.50307
	                              A1 (kJ/mol): -4.51183

	    Critical mole-fraction of component 2: 0.297625
	                     Critical temperature: 703.036 kelvin

(The critical temperature calculation assumes that the Guggenheim model
defined at 298.15 kelvin is valid at the critical temperature.)


	 Spinodal-gap mole fractions, component 2: 0.0654427	0.619798
	   Miscibility-gap fractions, component 2: 0.0048032	0.857863

			Eutectic Point Calculations

	     Aqueous activity ratio (comp2/comp1): 0.0981043
	 Log aqueous activity ratio (comp2/comp1): -1.00831
	 Aqueous activity fraction of component 2: 0.0893397
	                    Log IAP (component 2): -9.34631
	                    Log IAP (component 1): -8.338
	                               Log Sum Pi: -8.29736

Local minimum in the solidus curve corresponding to a maximum
in the minimum stoichiometric saturation curve.

	       Solid mole fraction of component 2: 0.198353
	                    Log IAP (component 2): -8.91133
	                    Log IAP (component 1): -8.30479
	                               Log Sum Pi: -8.20877
------------------
End of simulation.
------------------

------------------------------------
Reading input data for simulation 3.
------------------------------------

	SOLUTION 1
	        units mmol/kgw
	        pH 5.93 charge
	        Ca      3.932
	        C       7.864
	EQUILIBRIUM_PHASES 1
	        CO2(g) -0.01265 10
	        Aragonite
	SAVE solution 1
	END
-------------------------------------------
Beginning of initial solution calculations.
-------------------------------------------

Initial solution 1.	

-----------------------------Solution composition------------------------------

	Elements           Molality       Moles

	C                 7.864e-03   7.864e-03
	Ca                3.932e-03   3.932e-03

----------------------------Description of solution----------------------------

                                       pH  =   7.960      Charge balance
                                       pe  =   4.000    
      Specific Conductance (µS/cm,  25°C)  = 703
                          Density (g/cm³)  =   0.99755
                               Volume (L)  =   1.00309
                        Viscosity (mPa s)  =   0.89376
                        Activity of water  =   1.000
                 Ionic strength (mol/kgw)  =   1.148e-02
                       Mass of water (kg)  =   1.000e+00
                 Total alkalinity (eq/kg)  =   7.864e-03
                       Total CO2 (mol/kg)  =   7.864e-03
                         Temperature (°C)  =  25.00
                  Electrical balance (eq)  =  -1.333e-14
 Percent error, 100*(Cat-|An|)/(Cat+|An|)  =  -0.00
                               Iterations  =   7
                                  Total H  = 1.110200e+02
                                  Total O  = 5.552964e+01

----------------------------Distribution of species----------------------------

                                               Log       Log       Log    mole V
   Species          Molality    Activity  Molality  Activity     Gamma   cm³/mol

   OH-             1.033e-06   9.239e-07    -5.986    -6.034    -0.049     -4.02
   H+              1.205e-08   1.095e-08    -7.919    -7.960    -0.041      0.00
   H2O             5.551e+01   9.998e-01     1.744    -0.000     0.000     18.07
C(-4)         0.000e+00
   CH4             0.000e+00   0.000e+00   -75.072   -75.071     0.001     35.46
C(4)          7.864e-03
   HCO3-           7.532e-03   6.778e-03    -2.123    -2.169    -0.046     24.72
   CO2             1.667e-04   1.669e-04    -3.778    -3.777     0.001     34.79
   CaCO3           1.213e-04   1.216e-04    -3.916    -3.915     0.001    -14.60
   CO3-2           4.429e-05   2.902e-05    -4.354    -4.537    -0.184     -4.32
   CaHCO3+         1.645e-09   1.482e-09    -8.784    -8.829    -0.045      9.73
   (CO2)2          4.523e-10   4.531e-10    -9.345    -9.344     0.001     68.75
Ca            3.932e-03
   Ca+2            3.811e-03   2.495e-03    -2.419    -2.603    -0.184    -17.91
   CaCO3           1.213e-04   1.216e-04    -3.916    -3.915     0.001    -14.60
   CaOH+           4.217e-08   3.779e-08    -7.375    -7.423    -0.048     (0)  
   CaHCO3+         1.645e-09   1.482e-09    -8.784    -8.829    -0.045      9.73
H(0)          1.694e-27
   H2              8.470e-28   8.494e-28   -27.072   -27.071     0.001     14.99
O(0)          1.199e-38
   O2              5.997e-39   6.013e-39   -38.222   -38.221     0.001     30.40

------------------------------Saturation indices-------------------------------

  Phase               SI** log IAP   log K(298 K,   1 atm)

  Aragonite         1.20     -7.14   -8.34  CaCO3
  Calcite           1.31     -7.14   -8.45  CaCO3
  CH4(g)          -72.27    -75.07   -2.80  CH4
  CO2(g)           -2.31     -3.78   -1.47  CO2
  H2(g)           -23.97    -27.07   -3.10  H2
  H2O(g)           -1.50     -0.00    1.50  H2O
  O2(g)           -35.33    -38.22   -2.89  O2

**For a gas, SI = log10(fugacity). Fugacity = pressure * phi / 1 atm.
  For ideal gases, phi = 1.

-----------------------------------------
Beginning of batch-reaction calculations.
-----------------------------------------

Reaction step 1.

Using solution 1.	
Using pure phase assemblage 1.	

-------------------------------Phase assemblage--------------------------------

                                                      Moles in assemblage
Phase               SI  log IAP  log K(T, P)   Initial       Final       Delta

Aragonite         0.00    -8.34     -8.34    1.000e+01   9.994e+00  -5.735e-03
CO2(g)           -0.01    -1.48     -1.47    1.000e+01   9.962e+00  -3.849e-02

-----------------------------Solution composition------------------------------

	Elements           Molality       Moles

	C                 5.209e-02   5.209e-02
	Ca                9.668e-03   9.667e-03

----------------------------Description of solution----------------------------

                                       pH  =   6.055      Charge balance
                                       pe  =  11.810      Adjusted to redox equilibrium
      Specific Conductance (µS/cm,  25°C)  = 1675
                          Density (g/cm³)  =   0.99860
                               Volume (L)  =   1.00431
                        Viscosity (mPa s)  =   0.90033
                        Activity of water  =   0.999
                 Ionic strength (mol/kgw)  =   2.898e-02
                       Mass of water (kg)  =   9.999e-01
                 Total alkalinity (eq/kg)  =   1.934e-02
                       Total CO2 (mol/kg)  =   5.209e-02
                         Temperature (°C)  =  25.00
                  Electrical balance (eq)  =   2.347e-12
 Percent error, 100*(Cat-|An|)/(Cat+|An|)  =   0.00
                               Iterations  =  10
                                  Total H  = 1.110200e+02
                                  Total O  = 5.562382e+01

----------------------------Distribution of species----------------------------

                                               Log       Log       Log    mole V
   Species          Molality    Activity  Molality  Activity     Gamma   cm³/mol

   H+              1.006e-06   8.811e-07    -5.997    -6.055    -0.058      0.00
   OH-             1.356e-08   1.148e-08    -7.868    -7.940    -0.073     -3.95
   H2O             5.551e+01   9.990e-01     1.744    -0.000     0.000     18.07
C(-4)         0.000e+00
   CH4             0.000e+00   0.000e+00  -120.017  -120.014     0.003     35.46
C(4)          5.209e-02
   CO2             3.273e-02   3.287e-02    -1.485    -1.483     0.002     34.79
   HCO3-           1.932e-02   1.658e-02    -1.714    -1.780    -0.066     24.89
   (CO2)2          1.749e-05   1.757e-05    -4.757    -4.755     0.002     68.75
   CaCO3           7.698e-06   7.750e-06    -5.114    -5.111     0.003    -14.60
   CO3-2           1.631e-06   8.824e-07    -5.788    -6.054    -0.267     -4.01
   CaHCO3+         8.826e-09   7.599e-09    -8.054    -8.119    -0.065      9.76
Ca            9.668e-03
   Ca+2            9.660e-03   5.228e-03    -2.015    -2.282    -0.267    -17.74
   CaCO3           7.698e-06   7.750e-06    -5.114    -5.111     0.003    -14.60
   CaHCO3+         8.826e-09   7.599e-09    -8.054    -8.119    -0.065      9.76
   CaOH+           1.155e-09   9.838e-10    -8.937    -9.007    -0.070     (0)  
H(0)          2.615e-39
   H2              1.307e-39   1.317e-39   -38.884   -38.881     0.003     14.99
O(0)          4.963e-15
   O2              2.482e-15   2.498e-15   -14.605   -14.602     0.003     30.40

------------------------------Saturation indices-------------------------------

  Phase               SI** log IAP   log K(298 K,   1 atm)

  Aragonite         0.00     -8.34   -8.34  CaCO3
  Calcite           0.11     -8.34   -8.45  CaCO3
  CH4(g)         -117.21   -120.01   -2.80  CH4
  CO2(g)           -0.01     -1.48   -1.47  CO2	 Pressure   1.0 atm, phi 0.995
  H2(g)           -35.78    -38.88   -3.10  H2
  H2O(g)           -1.50     -0.00    1.50  H2O
  O2(g)           -11.71    -14.60   -2.89  O2

**For a gas, SI = log10(fugacity). Fugacity = pressure * phi / 1 atm.
  For ideal gases, phi = 1.

------------------
End of simulation.
------------------

------------------------------------
Reading input data for simulation 4.
------------------------------------

	USE solution 1
	USE solid_solution 1
	REACTION 1
	        SrCO3   1.0
	        .005 in 500 steps 
	PRINT
	        reset false
	        user_print true
	USER_PRINT
	start
	  10 sum = (S_S("Strontianite") + S_S("Aragonite"))
	  20 if sum = 0 THEN GOTO 110
	  30 xb = S_S("Strontianite")/sum
	  40 xc = S_S("Aragonite")/sum
	  50 PRINT "Simulation number:    ", SIM_NO
	  60 PRINT "Reaction step number: ", STEP_NO
	  70 PRINT "SrCO3 added:          ", RXN
	  80 PRINT "Log Sigma pi:         ", LOG10 (ACT("CO3-2") * (ACT("Ca+2") + ACT("Sr+2")))
	  90 PRINT "XAragonite:           ", xc
	 100 PRINT "XStrontianite:        ", xb
	 110 PRINT "XCa:                  ", TOT("Ca")/(TOT("Ca") + TOT("Sr"))
	 120 PRINT "XSr:                  ", TOT("Sr")/(TOT("Ca") + TOT("Sr"))
	 130 PRINT "Misc 1:               ", MISC1("Ca(x)Sr(1-x)CO3")
	 140 PRINT "Misc 2:               ", MISC2("Ca(x)Sr(1-x)CO3")
	end
	SELECTED_OUTPUT
	        file ex10.sel
	        reset false
	        reaction true
	USER_PUNCH
	heading   lg_SigmaPi X_Arag X_Stront X_Ca_aq X_Sr_aq mol_Misc1 mol_Misc2      mol_Arag mol_Stront
	start
	  10 sum = (S_S("Strontianite") + S_S("Aragonite"))
	  20 if sum = 0 THEN GOTO 60
	  30 xb = S_S("Strontianite")/(S_S("Strontianite") + S_S("Aragonite"))
	  40 xc = S_S("Aragonite")/(S_S("Strontianite") + S_S("Aragonite"))
	  50 REM Sigma Pi
	  60 PUNCH LOG10(ACT("CO3-2") * (ACT("Ca+2") + ACT("Sr+2")))
	  70 PUNCH xc                                 # Mole fraction aragonite
	  80 PUNCH xb                                 # Mole fraction strontianite
	  90 PUNCH TOT("Ca")/(TOT("Ca") + TOT("Sr"))  # Mole aqueous calcium
	  100 PUNCH TOT("Sr")/(TOT("Ca") + TOT("Sr")) # Mole aqueous strontium
	  110 x1 = MISC1("Ca(x)Sr(1-x)CO3")
	  120 x2 = MISC2("Ca(x)Sr(1-x)CO3")
	  130 if (xb < x1 OR xb > x2) THEN GOTO 250
	  140    nc = S_S("Aragonite")
	  150    nb = S_S("Strontianite")
	  160    mol2 = ((x1 - 1)/x1)*nb + nc
	  170    mol2 = mol2 / ( ((x1 -1)/x1)*x2 + (1 - x2))
	  180    mol1 = (nb - mol2*x2)/x1
	  190    REM                                 # Moles of misc. end members if in gap
	  200    PUNCH mol1
	  210    PUNCH mol2
	  220    GOTO 300
	  250    REM                                 # Moles of misc. end members if not in gap
	  260    PUNCH 1e-10
	  270    PUNCH 1e-10
	  300 PUNCH S_S("Aragonite")                 # Moles aragonite
	  310 PUNCH S_S("Strontianite")              # Moles Strontianite
	end
	USER_GRAPH Example 10
	        -headings x_Aragonite  x_Srontianite
	        -chart_title "Aragonite-Strontianite Solid Solution"
	        -axis_titles "Log(SrCO3 added, in moles)" "Log(Mole fraction of component)"
	        -axis_scale x_axis -5 1 1 1
	        -axis_scale y_axis -5 0.1 1 1
	        -connect_simulations true
	        -start
	  10 sum = (S_S("Strontianite") + S_S("Aragonite"))
	  20 IF sum = 0 THEN GOTO 70
	  30 xb = S_S("Strontianite")/ sum
	  40 xc = S_S("Aragonite")/ sum
	  50 PLOT_XY LOG10(RXN), LOG10(xc), line_w = 2, symbol_size = 0
	  60 PLOT_XY LOG10(RXN), LOG10(xb), line_w = 2, symbol_size = 0
	  70 rem
	  -end
	END     
----------------------------------User print-----------------------------------

Simulation number:                4 
Reaction step number:             1 
SrCO3 added:             1.0000e-05 
Log Sigma pi:           -8.3356e+00 
XAragonite:              9.9996e-01 
XStrontianite:           4.0505e-05 
XCa:                     9.9897e-01 
XSr:                     1.0340e-03 
Misc 1:                  4.8032e-03 
Misc 2:                  8.5786e-01 

----------------------------------User print-----------------------------------

Simulation number:                4 
Reaction step number:             2 
SrCO3 added:             2.0000e-05 
Log Sigma pi:           -8.3353e+00 
XAragonite:              9.9992e-01 
XStrontianite:           8.1115e-05 
XCa:                     9.9793e-01 
XSr:                     2.0672e-03 
Misc 1:                  4.8032e-03 
Misc 2:                  8.5786e-01 

----------------------------------User print-----------------------------------

Simulation number:                4 
Reaction step number:             3 
SrCO3 added:             3.0000e-05 
Log Sigma pi:           -8.3349e+00 
XAragonite:              9.9988e-01 
XStrontianite:           1.2183e-04 
XCa:                     9.9690e-01 
XSr:                     3.0996e-03 
Misc 1:                  4.8032e-03 
Misc 2:                  8.5786e-01 

----------------------------------User print-----------------------------------

Simulation number:                4 
Reaction step number:             4 
SrCO3 added:             4.0000e-05 
Log Sigma pi:           -8.3345e+00 
XAragonite:              9.9984e-01 
XStrontianite:           1.6265e-04 
XCa:                     9.9587e-01 
XSr:                     4.1311e-03 
Misc 1:                  4.8032e-03 
Misc 2:                  8.5786e-01 

----------------------------------User print-----------------------------------

Simulation number:                4 
Reaction step number:             5 
SrCO3 added:             5.0000e-05 
Log Sigma pi:           -8.3341e+00 
XAragonite:              9.9980e-01 
XStrontianite:           2.0357e-04 
XCa:                     9.9484e-01 
XSr:                     5.1618e-03 
Misc 1:                  4.8032e-03 
Misc 2:                  8.5786e-01 

----------------------------------User print-----------------------------------

Simulation number:                4 
Reaction step number:             6 
SrCO3 added:             6.0000e-05 
Log Sigma pi:           -8.3338e+00 
XAragonite:              9.9976e-01 
XStrontianite:           2.4460e-04 
XCa:                     9.9381e-01 
XSr:                     6.1917e-03 
Misc 1:                  4.8032e-03 
Misc 2:                  8.5786e-01 

----------------------------------User print-----------------------------------

Simulation number:                4 
Reaction step number:             7 
SrCO3 added:             7.0000e-05 
Log Sigma pi:           -8.3334e+00 
XAragonite:              9.9971e-01 
XStrontianite:           2.8574e-04 
XCa:                     9.9278e-01 
XSr:                     7.2207e-03 
Misc 1:                  4.8032e-03 
Misc 2:                  8.5786e-01 

----------------------------------User print-----------------------------------

Simulation number:                4 
Reaction step number:             8 
SrCO3 added:             8.0000e-05 
Log Sigma pi:           -8.3330e+00 
XAragonite:              9.9967e-01 
XStrontianite:           3.2698e-04 
XCa:                     9.9175e-01 
XSr:                     8.2489e-03 
Misc 1:                  4.8032e-03 
Misc 2:                  8.5786e-01 

----------------------------------User print-----------------------------------

Simulation number:                4 
Reaction step number:             9 
SrCO3 added:             9.0000e-05 
Log Sigma pi:           -8.3327e+00 
XAragonite:              9.9963e-01 
XStrontianite:           3.6833e-04 
XCa:                     9.9072e-01 
XSr:                     9.2763e-03 
Misc 1:                  4.8032e-03 
Misc 2:                  8.5786e-01 

----------------------------------User print-----------------------------------

Simulation number:                4 
Reaction step number:            10 
SrCO3 added:             1.0000e-04 
Log Sigma pi:           -8.3323e+00 
XAragonite:              9.9959e-01 
XStrontianite:           4.0978e-04 
XCa:                     9.8970e-01 
XSr:                     1.0303e-02 
Misc 1:                  4.8032e-03 
Misc 2:                  8.5786e-01 

----------------------------------User print-----------------------------------

Simulation number:                4 
Reaction step number:            11 
SrCO3 added:             1.1000e-04 
Log Sigma pi:           -8.3319e+00 
XAragonite:              9.9955e-01 
XStrontianite:           4.5135e-04 
XCa:                     9.8867e-01 
XSr:                     1.1329e-02 
Misc 1:                  4.8032e-03 
Misc 2:                  8.5786e-01 

----------------------------------User print-----------------------------------

Simulation number:                4 
Reaction step number:            12 
SrCO3 added:             1.2000e-04 
Log Sigma pi:           -8.3315e+00 
XAragonite:              9.9951e-01 
XStrontianite:           4.9302e-04 
XCa:                     9.8765e-01 
XSr:                     1.2354e-02 
Misc 1:                  4.8032e-03 
Misc 2:                  8.5786e-01 

----------------------------------User print-----------------------------------

Simulation number:                4 
Reaction step number:            13 
SrCO3 added:             1.3000e-04 
Log Sigma pi:           -8.3312e+00 
XAragonite:              9.9947e-01 
XStrontianite:           5.3480e-04 
XCa:                     9.8662e-01 
XSr:                     1.3378e-02 
Misc 1:                  4.8032e-03 
Misc 2:                  8.5786e-01 

----------------------------------User print-----------------------------------

Simulation number:                4 
Reaction step number:            14 
SrCO3 added:             1.4000e-04 
Log Sigma pi:           -8.3308e+00 
XAragonite:              9.9942e-01 
XStrontianite:           5.7669e-04 
XCa:                     9.8560e-01 
XSr:                     1.4401e-02 
Misc 1:                  4.8032e-03 
Misc 2:                  8.5786e-01 

----------------------------------User print-----------------------------------

Simulation number:                4 
Reaction step number:            15 
SrCO3 added:             1.5000e-04 
Log Sigma pi:           -8.3304e+00 
XAragonite:              9.9938e-01 
XStrontianite:           6.1869e-04 
XCa:                     9.8458e-01 
XSr:                     1.5423e-02 
Misc 1:                  4.8032e-03 
Misc 2:                  8.5786e-01 

----------------------------------User print-----------------------------------

Simulation number:                4 
Reaction step number:            16 
SrCO3 added:             1.6000e-04 
Log Sigma pi:           -8.3300e+00 
XAragonite:              9.9934e-01 
XStrontianite:           6.6081e-04 
XCa:                     9.8356e-01 
XSr:                     1.6445e-02 
Misc 1:                  4.8032e-03 
Misc 2:                  8.5786e-01 

----------------------------------User print-----------------------------------

Simulation number:                4 
Reaction step number:            17 
SrCO3 added:             1.7000e-04 
Log Sigma pi:           -8.3297e+00 
XAragonite:              9.9930e-01 
XStrontianite:           7.0303e-04 
XCa:                     9.8253e-01 
XSr:                     1.7466e-02 
Misc 1:                  4.8032e-03 
Misc 2:                  8.5786e-01 

----------------------------------User print-----------------------------------

Simulation number:                4 
Reaction step number:            18 
SrCO3 added:             1.8000e-04 
Log Sigma pi:           -8.3293e+00 
XAragonite:              9.9925e-01 
XStrontianite:           7.4536e-04 
XCa:                     9.8151e-01 
XSr:                     1.8486e-02 
Misc 1:                  4.8032e-03 
Misc 2:                  8.5786e-01 

----------------------------------User print-----------------------------------

Simulation number:                4 
Reaction step number:            19 
SrCO3 added:             1.9000e-04 
Log Sigma pi:           -8.3289e+00 
XAragonite:              9.9921e-01 
XStrontianite:           7.8780e-04 
XCa:                     9.8050e-01 
XSr:                     1.9505e-02 
Misc 1:                  4.8032e-03 
Misc 2:                  8.5786e-01 

----------------------------------User print-----------------------------------

Simulation number:                4 
Reaction step number:            20 
SrCO3 added:             2.0000e-04 
Log Sigma pi:           -8.3286e+00 
XAragonite:              9.9917e-01 
XStrontianite:           8.3036e-04 
XCa:                     9.7948e-01 
XSr:                     2.0523e-02 
Misc 1:                  4.8032e-03 
Misc 2:                  8.5786e-01 

----------------------------------User print-----------------------------------

Simulation number:                4 
Reaction step number:            21 
SrCO3 added:             2.1000e-04 
Log Sigma pi:           -8.3282e+00 
XAragonite:              9.9913e-01 
XStrontianite:           8.7303e-04 
XCa:                     9.7846e-01 
XSr:                     2.1540e-02 
Misc 1:                  4.8032e-03 
Misc 2:                  8.5786e-01 

----------------------------------User print-----------------------------------

Simulation number:                4 
Reaction step number:            22 
SrCO3 added:             2.2000e-04 
Log Sigma pi:           -8.3278e+00 
XAragonite:              9.9908e-01 
XStrontianite:           9.1581e-04 
XCa:                     9.7744e-01 
XSr:                     2.2557e-02 
Misc 1:                  4.8032e-03 
Misc 2:                  8.5786e-01 

----------------------------------User print-----------------------------------

Simulation number:                4 
Reaction step number:            23 
SrCO3 added:             2.3000e-04 
Log Sigma pi:           -8.3274e+00 
XAragonite:              9.9904e-01 
XStrontianite:           9.5871e-04 
XCa:                     9.7643e-01 
XSr:                     2.3573e-02 
Misc 1:                  4.8032e-03 
Misc 2:                  8.5786e-01 

----------------------------------User print-----------------------------------

Simulation number:                4 
Reaction step number:            24 
SrCO3 added:             2.4000e-04 
Log Sigma pi:           -8.3271e+00 
XAragonite:              9.9900e-01 
XStrontianite:           1.0017e-03 
XCa:                     9.7541e-01 
XSr:                     2.4588e-02 
Misc 1:                  4.8032e-03 
Misc 2:                  8.5786e-01 

----------------------------------User print-----------------------------------

Simulation number:                4 
Reaction step number:            25 
SrCO3 added:             2.5000e-04 
Log Sigma pi:           -8.3267e+00 
XAragonite:              9.9896e-01 
XStrontianite:           1.0448e-03 
XCa:                     9.7440e-01 
XSr:                     2.5602e-02 
Misc 1:                  4.8032e-03 
Misc 2:                  8.5786e-01 

----------------------------------User print-----------------------------------

Simulation number:                4 
Reaction step number:            26 
SrCO3 added:             2.6000e-04 
Log Sigma pi:           -8.3263e+00 
XAragonite:              9.9891e-01 
XStrontianite:           1.0881e-03 
XCa:                     9.7338e-01 
XSr:                     2.6615e-02 
Misc 1:                  4.8032e-03 
Misc 2:                  8.5786e-01 

----------------------------------User print-----------------------------------

Simulation number:                4 
Reaction step number:            27 
SrCO3 added:             2.7000e-04 
Log Sigma pi:           -8.3259e+00 
XAragonite:              9.9887e-01 
XStrontianite:           1.1314e-03 
XCa:                     9.7237e-01 
XSr:                     2.7628e-02 
Misc 1:                  4.8032e-03 
Misc 2:                  8.5786e-01 

----------------------------------User print-----------------------------------

Simulation number:                4 
Reaction step number:            28 
SrCO3 added:             2.8000e-04 
Log Sigma pi:           -8.3256e+00 
XAragonite:              9.9883e-01 
XStrontianite:           1.1749e-03 
XCa:                     9.7136e-01 
XSr:                     2.8640e-02 
Misc 1:                  4.8032e-03 
Misc 2:                  8.5786e-01 

----------------------------------User print-----------------------------------

Simulation number:                4 
Reaction step number:            29 
SrCO3 added:             2.9000e-04 
Log Sigma pi:           -8.3252e+00 
XAragonite:              9.9878e-01 
XStrontianite:           1.2185e-03 
XCa:                     9.7035e-01 
XSr:                     2.9650e-02 
Misc 1:                  4.8032e-03 
Misc 2:                  8.5786e-01 

----------------------------------User print-----------------------------------

Simulation number:                4 
Reaction step number:            30 
SrCO3 added:             3.0000e-04 
Log Sigma pi:           -8.3248e+00 
XAragonite:              9.9874e-01 
XStrontianite:           1.2622e-03 
XCa:                     9.6934e-01 
XSr:                     3.0660e-02 
Misc 1:                  4.8032e-03 
Misc 2:                  8.5786e-01 

----------------------------------User print-----------------------------------

Simulation number:                4 
Reaction step number:            31 
SrCO3 added:             3.1000e-04 
Log Sigma pi:           -8.3244e+00 
XAragonite:              9.9869e-01 
XStrontianite:           1.3060e-03 
XCa:                     9.6833e-01 
XSr:                     3.1670e-02 
Misc 1:                  4.8032e-03 
Misc 2:                  8.5786e-01 

----------------------------------User print-----------------------------------

Simulation number:                4 
Reaction step number:            32 
SrCO3 added:             3.2000e-04 
Log Sigma pi:           -8.3241e+00 
XAragonite:              9.9865e-01 
XStrontianite:           1.3500e-03 
XCa:                     9.6732e-01 
XSr:                     3.2678e-02 
Misc 1:                  4.8032e-03 
Misc 2:                  8.5786e-01 

----------------------------------User print-----------------------------------

Simulation number:                4 
Reaction step number:            33 
SrCO3 added:             3.3000e-04 
Log Sigma pi:           -8.3237e+00 
XAragonite:              9.9861e-01 
XStrontianite:           1.3940e-03 
XCa:                     9.6631e-01 
XSr:                     3.3686e-02 
Misc 1:                  4.8032e-03 
Misc 2:                  8.5786e-01 

----------------------------------User print-----------------------------------

Simulation number:                4 
Reaction step number:            34 
SrCO3 added:             3.4000e-04 
Log Sigma pi:           -8.3233e+00 
XAragonite:              9.9856e-01 
XStrontianite:           1.4382e-03 
XCa:                     9.6531e-01 
XSr:                     3.4692e-02 
Misc 1:                  4.8032e-03 
Misc 2:                  8.5786e-01 

----------------------------------User print-----------------------------------

Simulation number:                4 
Reaction step number:            35 
SrCO3 added:             3.5000e-04 
Log Sigma pi:           -8.3230e+00 
XAragonite:              9.9852e-01 
XStrontianite:           1.4825e-03 
XCa:                     9.6430e-01 
XSr:                     3.5698e-02 
Misc 1:                  4.8032e-03 
Misc 2:                  8.5786e-01 

----------------------------------User print-----------------------------------

Simulation number:                4 
Reaction step number:            36 
SrCO3 added:             3.6000e-04 
Log Sigma pi:           -8.3226e+00 
XAragonite:              9.9847e-01 
XStrontianite:           1.5269e-03 
XCa:                     9.6330e-01 
XSr:                     3.6703e-02 
Misc 1:                  4.8032e-03 
Misc 2:                  8.5786e-01 

----------------------------------User print-----------------------------------

Simulation number:                4 
Reaction step number:            37 
SrCO3 added:             3.7000e-04 
Log Sigma pi:           -8.3222e+00 
XAragonite:              9.9843e-01 
XStrontianite:           1.5714e-03 
XCa:                     9.6229e-01 
XSr:                     3.7708e-02 
Misc 1:                  4.8032e-03 
Misc 2:                  8.5786e-01 

----------------------------------User print-----------------------------------

Simulation number:                4 
Reaction step number:            38 
SrCO3 added:             3.8000e-04 
Log Sigma pi:           -8.3218e+00 
XAragonite:              9.9838e-01 
XStrontianite:           1.6161e-03 
XCa:                     9.6129e-01 
XSr:                     3.8711e-02 
Misc 1:                  4.8032e-03 
Misc 2:                  8.5786e-01 

----------------------------------User print-----------------------------------

Simulation number:                4 
Reaction step number:            39 
SrCO3 added:             3.9000e-04 
Log Sigma pi:           -8.3215e+00 
XAragonite:              9.9834e-01 
XStrontianite:           1.6609e-03 
XCa:                     9.6029e-01 
XSr:                     3.9714e-02 
Misc 1:                  4.8032e-03 
Misc 2:                  8.5786e-01 

----------------------------------User print-----------------------------------

Simulation number:                4 
Reaction step number:            40 
SrCO3 added:             4.0000e-04 
Log Sigma pi:           -8.3211e+00 
XAragonite:              9.9829e-01 
XStrontianite:           1.7058e-03 
XCa:                     9.5928e-01 
XSr:                     4.0716e-02 
Misc 1:                  4.8032e-03 
Misc 2:                  8.5786e-01 

----------------------------------User print-----------------------------------

Simulation number:                4 
Reaction step number:            41 
SrCO3 added:             4.1000e-04 
Log Sigma pi:           -8.3207e+00 
XAragonite:              9.9825e-01 
XStrontianite:           1.7508e-03 
XCa:                     9.5828e-01 
XSr:                     4.1717e-02 
Misc 1:                  4.8032e-03 
Misc 2:                  8.5786e-01 

----------------------------------User print-----------------------------------

Simulation number:                4 
Reaction step number:            42 
SrCO3 added:             4.2000e-04 
Log Sigma pi:           -8.3203e+00 
XAragonite:              9.9820e-01 
XStrontianite:           1.7959e-03 
XCa:                     9.5728e-01 
XSr:                     4.2717e-02 
Misc 1:                  4.8032e-03 
Misc 2:                  8.5786e-01 

----------------------------------User print-----------------------------------

Simulation number:                4 
Reaction step number:            43 
SrCO3 added:             4.3000e-04 
Log Sigma pi:           -8.3200e+00 
XAragonite:              9.9816e-01 
XStrontianite:           1.8412e-03 
XCa:                     9.5628e-01 
XSr:                     4.3716e-02 
Misc 1:                  4.8032e-03 
Misc 2:                  8.5786e-01 

----------------------------------User print-----------------------------------

Simulation number:                4 
Reaction step number:            44 
SrCO3 added:             4.4000e-04 
Log Sigma pi:           -8.3196e+00 
XAragonite:              9.9811e-01 
XStrontianite:           1.8866e-03 
XCa:                     9.5529e-01 
XSr:                     4.4715e-02 
Misc 1:                  4.8032e-03 
Misc 2:                  8.5786e-01 

----------------------------------User print-----------------------------------

Simulation number:                4 
Reaction step number:            45 
SrCO3 added:             4.5000e-04 
Log Sigma pi:           -8.3192e+00 
XAragonite:              9.9807e-01 
XStrontianite:           1.9321e-03 
XCa:                     9.5429e-01 
XSr:                     4.5712e-02 
Misc 1:                  4.8032e-03 
Misc 2:                  8.5786e-01 

----------------------------------User print-----------------------------------

Simulation number:                4 
Reaction step number:            46 
SrCO3 added:             4.6000e-04 
Log Sigma pi:           -8.3188e+00 
XAragonite:              9.9802e-01 
XStrontianite:           1.9778e-03 
XCa:                     9.5329e-01 
XSr:                     4.6709e-02 
Misc 1:                  4.8032e-03 
Misc 2:                  8.5786e-01 

----------------------------------User print-----------------------------------

Simulation number:                4 
Reaction step number:            47 
SrCO3 added:             4.7000e-04 
Log Sigma pi:           -8.3185e+00 
XAragonite:              9.9798e-01 
XStrontianite:           2.0236e-03 
XCa:                     9.5229e-01 
XSr:                     4.7705e-02 
Misc 1:                  4.8032e-03 
Misc 2:                  8.5786e-01 

----------------------------------User print-----------------------------------

Simulation number:                4 
Reaction step number:            48 
SrCO3 added:             4.8000e-04 
Log Sigma pi:           -8.3181e+00 
XAragonite:              9.9793e-01 
XStrontianite:           2.0695e-03 
XCa:                     9.5130e-01 
XSr:                     4.8701e-02 
Misc 1:                  4.8032e-03 
Misc 2:                  8.5786e-01 

----------------------------------User print-----------------------------------

Simulation number:                4 
Reaction step number:            49 
SrCO3 added:             4.9000e-04 
Log Sigma pi:           -8.3177e+00 
XAragonite:              9.9788e-01 
XStrontianite:           2.1155e-03 
XCa:                     9.5030e-01 
XSr:                     4.9695e-02 
Misc 1:                  4.8032e-03 
Misc 2:                  8.5786e-01 

----------------------------------User print-----------------------------------

Simulation number:                4 
Reaction step number:            50 
SrCO3 added:             5.0000e-04 
Log Sigma pi:           -8.3173e+00 
XAragonite:              9.9784e-01 
XStrontianite:           2.1616e-03 
XCa:                     9.4931e-01 
XSr:                     5.0689e-02 
Misc 1:                  4.8032e-03 
Misc 2:                  8.5786e-01 

----------------------------------User print-----------------------------------

Simulation number:                4 
Reaction step number:            51 
SrCO3 added:             5.1000e-04 
Log Sigma pi:           -8.3170e+00 
XAragonite:              9.9779e-01 
XStrontianite:           2.2079e-03 
XCa:                     9.4832e-01 
XSr:                     5.1682e-02 
Misc 1:                  4.8032e-03 
Misc 2:                  8.5786e-01 

----------------------------------User print-----------------------------------

Simulation number:                4 
Reaction step number:            52 
SrCO3 added:             5.2000e-04 
Log Sigma pi:           -8.3166e+00 
XAragonite:              9.9775e-01 
XStrontianite:           2.2543e-03 
XCa:                     9.4733e-01 
XSr:                     5.2674e-02 
Misc 1:                  4.8032e-03 
Misc 2:                  8.5786e-01 

----------------------------------User print-----------------------------------

Simulation number:                4 
Reaction step number:            53 
SrCO3 added:             5.3000e-04 
Log Sigma pi:           -8.3162e+00 
XAragonite:              9.9770e-01 
XStrontianite:           2.3009e-03 
XCa:                     9.4634e-01 
XSr:                     5.3665e-02 
Misc 1:                  4.8032e-03 
Misc 2:                  8.5786e-01 

----------------------------------User print-----------------------------------

Simulation number:                4 
Reaction step number:            54 
SrCO3 added:             5.4000e-04 
Log Sigma pi:           -8.3158e+00 
XAragonite:              9.9765e-01 
XStrontianite:           2.3475e-03 
XCa:                     9.4534e-01 
XSr:                     5.4655e-02 
Misc 1:                  4.8032e-03 
Misc 2:                  8.5786e-01 

----------------------------------User print-----------------------------------

Simulation number:                4 
Reaction step number:            55 
SrCO3 added:             5.5000e-04 
Log Sigma pi:           -8.3155e+00 
XAragonite:              9.9761e-01 
XStrontianite:           2.3943e-03 
XCa:                     9.4436e-01 
XSr:                     5.5645e-02 
Misc 1:                  4.8032e-03 
Misc 2:                  8.5786e-01 

----------------------------------User print-----------------------------------

Simulation number:                4 
Reaction step number:            56 
SrCO3 added:             5.6000e-04 
Log Sigma pi:           -8.3151e+00 
XAragonite:              9.9756e-01 
XStrontianite:           2.4413e-03 
XCa:                     9.4337e-01 
XSr:                     5.6633e-02 
Misc 1:                  4.8032e-03 
Misc 2:                  8.5786e-01 

----------------------------------User print-----------------------------------

Simulation number:                4 
Reaction step number:            57 
SrCO3 added:             5.7000e-04 
Log Sigma pi:           -8.3147e+00 
XAragonite:              9.9751e-01 
XStrontianite:           2.4883e-03 
XCa:                     9.4238e-01 
XSr:                     5.7621e-02 
Misc 1:                  4.8032e-03 
Misc 2:                  8.5786e-01 

----------------------------------User print-----------------------------------

Simulation number:                4 
Reaction step number:            58 
SrCO3 added:             5.8000e-04 
Log Sigma pi:           -8.3143e+00 
XAragonite:              9.9746e-01 
XStrontianite:           2.5355e-03 
XCa:                     9.4139e-01 
XSr:                     5.8608e-02 
Misc 1:                  4.8032e-03 
Misc 2:                  8.5786e-01 

----------------------------------User print-----------------------------------

Simulation number:                4 
Reaction step number:            59 
SrCO3 added:             5.9000e-04 
Log Sigma pi:           -8.3139e+00 
XAragonite:              9.9742e-01 
XStrontianite:           2.5829e-03 
XCa:                     9.4041e-01 
XSr:                     5.9594e-02 
Misc 1:                  4.8032e-03 
Misc 2:                  8.5786e-01 

----------------------------------User print-----------------------------------

Simulation number:                4 
Reaction step number:            60 
SrCO3 added:             6.0000e-04 
Log Sigma pi:           -8.3136e+00 
XAragonite:              9.9737e-01 
XStrontianite:           2.6303e-03 
XCa:                     9.3942e-01 
XSr:                     6.0580e-02 
Misc 1:                  4.8032e-03 
Misc 2:                  8.5786e-01 

----------------------------------User print-----------------------------------

Simulation number:                4 
Reaction step number:            61 
SrCO3 added:             6.1000e-04 
Log Sigma pi:           -8.3132e+00 
XAragonite:              9.9732e-01 
XStrontianite:           2.6779e-03 
XCa:                     9.3844e-01 
XSr:                     6.1564e-02 
Misc 1:                  4.8032e-03 
Misc 2:                  8.5786e-01 

----------------------------------User print-----------------------------------

Simulation number:                4 
Reaction step number:            62 
SrCO3 added:             6.2000e-04 
Log Sigma pi:           -8.3128e+00 
XAragonite:              9.9727e-01 
XStrontianite:           2.7257e-03 
XCa:                     9.3745e-01 
XSr:                     6.2548e-02 
Misc 1:                  4.8032e-03 
Misc 2:                  8.5786e-01 

----------------------------------User print-----------------------------------

Simulation number:                4 
Reaction step number:            63 
SrCO3 added:             6.3000e-04 
Log Sigma pi:           -8.3124e+00 
XAragonite:              9.9723e-01 
XStrontianite:           2.7735e-03 
XCa:                     9.3647e-01 
XSr:                     6.3531e-02 
Misc 1:                  4.8032e-03 
Misc 2:                  8.5786e-01 

----------------------------------User print-----------------------------------

Simulation number:                4 
Reaction step number:            64 
SrCO3 added:             6.4000e-04 
Log Sigma pi:           -8.3121e+00 
XAragonite:              9.9718e-01 
XStrontianite:           2.8215e-03 
XCa:                     9.3549e-01 
XSr:                     6.4513e-02 
Misc 1:                  4.8032e-03 
Misc 2:                  8.5786e-01 

----------------------------------User print-----------------------------------

Simulation number:                4 
Reaction step number:            65 
SrCO3 added:             6.5000e-04 
Log Sigma pi:           -8.3117e+00 
XAragonite:              9.9713e-01 
XStrontianite:           2.8697e-03 
XCa:                     9.3451e-01 
XSr:                     6.5495e-02 
Misc 1:                  4.8032e-03 
Misc 2:                  8.5786e-01 

----------------------------------User print-----------------------------------

Simulation number:                4 
Reaction step number:            66 
SrCO3 added:             6.6000e-04 
Log Sigma pi:           -8.3113e+00 
XAragonite:              9.9708e-01 
XStrontianite:           2.9180e-03 
XCa:                     9.3352e-01 
XSr:                     6.6475e-02 
Misc 1:                  4.8032e-03 
Misc 2:                  8.5786e-01 

----------------------------------User print-----------------------------------

Simulation number:                4 
Reaction step number:            67 
SrCO3 added:             6.7000e-04 
Log Sigma pi:           -8.3109e+00 
XAragonite:              9.9703e-01 
XStrontianite:           2.9664e-03 
XCa:                     9.3254e-01 
XSr:                     6.7455e-02 
Misc 1:                  4.8032e-03 
Misc 2:                  8.5786e-01 

----------------------------------User print-----------------------------------

Simulation number:                4 
Reaction step number:            68 
SrCO3 added:             6.8000e-04 
Log Sigma pi:           -8.3106e+00 
XAragonite:              9.9699e-01 
XStrontianite:           3.0149e-03 
XCa:                     9.3157e-01 
XSr:                     6.8434e-02 
Misc 1:                  4.8032e-03 
Misc 2:                  8.5786e-01 

----------------------------------User print-----------------------------------

Simulation number:                4 
Reaction step number:            69 
SrCO3 added:             6.9000e-04 
Log Sigma pi:           -8.3102e+00 
XAragonite:              9.9694e-01 
XStrontianite:           3.0636e-03 
XCa:                     9.3059e-01 
XSr:                     6.9412e-02 
Misc 1:                  4.8032e-03 
Misc 2:                  8.5786e-01 

----------------------------------User print-----------------------------------

Simulation number:                4 
Reaction step number:            70 
SrCO3 added:             7.0000e-04 
Log Sigma pi:           -8.3098e+00 
XAragonite:              9.9689e-01 
XStrontianite:           3.1125e-03 
XCa:                     9.2961e-01 
XSr:                     7.0389e-02 
Misc 1:                  4.8032e-03 
Misc 2:                  8.5786e-01 

----------------------------------User print-----------------------------------

Simulation number:                4 
Reaction step number:            71 
SrCO3 added:             7.1000e-04 
Log Sigma pi:           -8.3094e+00 
XAragonite:              9.9684e-01 
XStrontianite:           3.1614e-03 
XCa:                     9.2863e-01 
XSr:                     7.1366e-02 
Misc 1:                  4.8032e-03 
Misc 2:                  8.5786e-01 

----------------------------------User print-----------------------------------

Simulation number:                4 
Reaction step number:            72 
SrCO3 added:             7.2000e-04 
Log Sigma pi:           -8.3091e+00 
XAragonite:              9.9679e-01 
XStrontianite:           3.2106e-03 
XCa:                     9.2766e-01 
XSr:                     7.2341e-02 
Misc 1:                  4.8032e-03 
Misc 2:                  8.5786e-01 

----------------------------------User print-----------------------------------

Simulation number:                4 
Reaction step number:            73 
SrCO3 added:             7.3000e-04 
Log Sigma pi:           -8.3087e+00 
XAragonite:              9.9674e-01 
XStrontianite:           3.2598e-03 
XCa:                     9.2668e-01 
XSr:                     7.3316e-02 
Misc 1:                  4.8032e-03 
Misc 2:                  8.5786e-01 

----------------------------------User print-----------------------------------

Simulation number:                4 
Reaction step number:            74 
SrCO3 added:             7.4000e-04 
Log Sigma pi:           -8.3083e+00 
XAragonite:              9.9669e-01 
XStrontianite:           3.3092e-03 
XCa:                     9.2571e-01 
XSr:                     7.4290e-02 
Misc 1:                  4.8032e-03 
Misc 2:                  8.5786e-01 

----------------------------------User print-----------------------------------

Simulation number:                4 
Reaction step number:            75 
SrCO3 added:             7.5000e-04 
Log Sigma pi:           -8.3079e+00 
XAragonite:              9.9664e-01 
XStrontianite:           3.3588e-03 
XCa:                     9.2474e-01 
XSr:                     7.5263e-02 
Misc 1:                  4.8032e-03 
Misc 2:                  8.5786e-01 

----------------------------------User print-----------------------------------

Simulation number:                4 
Reaction step number:            76 
SrCO3 added:             7.6000e-04 
Log Sigma pi:           -8.3075e+00 
XAragonite:              9.9659e-01 
XStrontianite:           3.4085e-03 
XCa:                     9.2376e-01 
XSr:                     7.6236e-02 
Misc 1:                  4.8032e-03 
Misc 2:                  8.5786e-01 

----------------------------------User print-----------------------------------

Simulation number:                4 
Reaction step number:            77 
SrCO3 added:             7.7000e-04 
Log Sigma pi:           -8.3072e+00 
XAragonite:              9.9654e-01 
XStrontianite:           3.4583e-03 
XCa:                     9.2279e-01 
XSr:                     7.7207e-02 
Misc 1:                  4.8032e-03 
Misc 2:                  8.5786e-01 

----------------------------------User print-----------------------------------

Simulation number:                4 
Reaction step number:            78 
SrCO3 added:             7.8000e-04 
Log Sigma pi:           -8.3068e+00 
XAragonite:              9.9649e-01 
XStrontianite:           3.5083e-03 
XCa:                     9.2182e-01 
XSr:                     7.8178e-02 
Misc 1:                  4.8032e-03 
Misc 2:                  8.5786e-01 

----------------------------------User print-----------------------------------

Simulation number:                4 
Reaction step number:            79 
SrCO3 added:             7.9000e-04 
Log Sigma pi:           -8.3064e+00 
XAragonite:              9.9644e-01 
XStrontianite:           3.5584e-03 
XCa:                     9.2085e-01 
XSr:                     7.9148e-02 
Misc 1:                  4.8032e-03 
Misc 2:                  8.5786e-01 

----------------------------------User print-----------------------------------

Simulation number:                4 
Reaction step number:            80 
SrCO3 added:             8.0000e-04 
Log Sigma pi:           -8.3060e+00 
XAragonite:              9.9639e-01 
XStrontianite:           3.6087e-03 
XCa:                     9.1988e-01 
XSr:                     8.0117e-02 
Misc 1:                  4.8032e-03 
Misc 2:                  8.5786e-01 

----------------------------------User print-----------------------------------

Simulation number:                4 
Reaction step number:            81 
SrCO3 added:             8.1000e-04 
Log Sigma pi:           -8.3057e+00 
XAragonite:              9.9634e-01 
XStrontianite:           3.6591e-03 
XCa:                     9.1891e-01 
XSr:                     8.1085e-02 
Misc 1:                  4.8032e-03 
Misc 2:                  8.5786e-01 

----------------------------------User print-----------------------------------

Simulation number:                4 
Reaction step number:            82 
SrCO3 added:             8.2000e-04 
Log Sigma pi:           -8.3053e+00 
XAragonite:              9.9629e-01 
XStrontianite:           3.7097e-03 
XCa:                     9.1795e-01 
XSr:                     8.2053e-02 
Misc 1:                  4.8032e-03 
Misc 2:                  8.5786e-01 

----------------------------------User print-----------------------------------

Simulation number:                4 
Reaction step number:            83 
SrCO3 added:             8.3000e-04 
Log Sigma pi:           -8.3049e+00 
XAragonite:              9.9624e-01 
XStrontianite:           3.7604e-03 
XCa:                     9.1698e-01 
XSr:                     8.3020e-02 
Misc 1:                  4.8032e-03 
Misc 2:                  8.5786e-01 

----------------------------------User print-----------------------------------

Simulation number:                4 
Reaction step number:            84 
SrCO3 added:             8.4000e-04 
Log Sigma pi:           -8.3045e+00 
XAragonite:              9.9619e-01 
XStrontianite:           3.8113e-03 
XCa:                     9.1601e-01 
XSr:                     8.3986e-02 
Misc 1:                  4.8032e-03 
Misc 2:                  8.5786e-01 

----------------------------------User print-----------------------------------

Simulation number:                4 
Reaction step number:            85 
SrCO3 added:             8.5000e-04 
Log Sigma pi:           -8.3041e+00 
XAragonite:              9.9614e-01 
XStrontianite:           3.8623e-03 
XCa:                     9.1505e-01 
XSr:                     8.4951e-02 
Misc 1:                  4.8032e-03 
Misc 2:                  8.5786e-01 

----------------------------------User print-----------------------------------

Simulation number:                4 
Reaction step number:            86 
SrCO3 added:             8.6000e-04 
Log Sigma pi:           -8.3038e+00 
XAragonite:              9.9609e-01 
XStrontianite:           3.9135e-03 
XCa:                     9.1409e-01 
XSr:                     8.5915e-02 
Misc 1:                  4.8032e-03 
Misc 2:                  8.5786e-01 

----------------------------------User print-----------------------------------

Simulation number:                4 
Reaction step number:            87 
SrCO3 added:             8.7000e-04 
Log Sigma pi:           -8.3034e+00 
XAragonite:              9.9604e-01 
XStrontianite:           3.9648e-03 
XCa:                     9.1312e-01 
XSr:                     8.6878e-02 
Misc 1:                  4.8032e-03 
Misc 2:                  8.5786e-01 

----------------------------------User print-----------------------------------

Simulation number:                4 
Reaction step number:            88 
SrCO3 added:             8.8000e-04 
Log Sigma pi:           -8.3030e+00 
XAragonite:              9.9598e-01 
XStrontianite:           4.0163e-03 
XCa:                     9.1216e-01 
XSr:                     8.7841e-02 
Misc 1:                  4.8032e-03 
Misc 2:                  8.5786e-01 

----------------------------------User print-----------------------------------

Simulation number:                4 
Reaction step number:            89 
SrCO3 added:             8.9000e-04 
Log Sigma pi:           -8.3026e+00 
XAragonite:              9.9593e-01 
XStrontianite:           4.0679e-03 
XCa:                     9.1120e-01 
XSr:                     8.8803e-02 
Misc 1:                  4.8032e-03 
Misc 2:                  8.5786e-01 

----------------------------------User print-----------------------------------

Simulation number:                4 
Reaction step number:            90 
SrCO3 added:             9.0000e-04 
Log Sigma pi:           -8.3023e+00 
XAragonite:              9.9588e-01 
XStrontianite:           4.1197e-03 
XCa:                     9.1024e-01 
XSr:                     8.9764e-02 
Misc 1:                  4.8032e-03 
Misc 2:                  8.5786e-01 

----------------------------------User print-----------------------------------

Simulation number:                4 
Reaction step number:            91 
SrCO3 added:             9.1000e-04 
Log Sigma pi:           -8.3019e+00 
XAragonite:              9.9583e-01 
XStrontianite:           4.1716e-03 
XCa:                     9.0928e-01 
XSr:                     9.0724e-02 
Misc 1:                  4.8032e-03 
Misc 2:                  8.5786e-01 

----------------------------------User print-----------------------------------

Simulation number:                4 
Reaction step number:            92 
SrCO3 added:             9.2000e-04 
Log Sigma pi:           -8.3015e+00 
XAragonite:              9.9578e-01 
XStrontianite:           4.2237e-03 
XCa:                     9.0832e-01 
XSr:                     9.1683e-02 
Misc 1:                  4.8032e-03 
Misc 2:                  8.5786e-01 

----------------------------------User print-----------------------------------

Simulation number:                4 
Reaction step number:            93 
SrCO3 added:             9.3000e-04 
Log Sigma pi:           -8.3011e+00 
XAragonite:              9.9572e-01 
XStrontianite:           4.2760e-03 
XCa:                     9.0736e-01 
XSr:                     9.2642e-02 
Misc 1:                  4.8032e-03 
Misc 2:                  8.5786e-01 

----------------------------------User print-----------------------------------

Simulation number:                4 
Reaction step number:            94 
SrCO3 added:             9.4000e-04 
Log Sigma pi:           -8.3007e+00 
XAragonite:              9.9567e-01 
XStrontianite:           4.3284e-03 
XCa:                     9.0640e-01 
XSr:                     9.3600e-02 
Misc 1:                  4.8032e-03 
Misc 2:                  8.5786e-01 

----------------------------------User print-----------------------------------

Simulation number:                4 
Reaction step number:            95 
SrCO3 added:             9.5000e-04 
Log Sigma pi:           -8.3004e+00 
XAragonite:              9.9562e-01 
XStrontianite:           4.3810e-03 
XCa:                     9.0544e-01 
XSr:                     9.4557e-02 
Misc 1:                  4.8032e-03 
Misc 2:                  8.5786e-01 

----------------------------------User print-----------------------------------

Simulation number:                4 
Reaction step number:            96 
SrCO3 added:             9.6000e-04 
Log Sigma pi:           -8.3000e+00 
XAragonite:              9.9557e-01 
XStrontianite:           4.4337e-03 
XCa:                     9.0449e-01 
XSr:                     9.5513e-02 
Misc 1:                  4.8032e-03 
Misc 2:                  8.5786e-01 

----------------------------------User print-----------------------------------

Simulation number:                4 
Reaction step number:            97 
SrCO3 added:             9.7000e-04 
Log Sigma pi:           -8.2996e+00 
XAragonite:              9.9551e-01 
XStrontianite:           4.4866e-03 
XCa:                     9.0353e-01 
XSr:                     9.6468e-02 
Misc 1:                  4.8032e-03 
Misc 2:                  8.5786e-01 

----------------------------------User print-----------------------------------

Simulation number:                4 
Reaction step number:            98 
SrCO3 added:             9.8000e-04 
Log Sigma pi:           -8.2992e+00 
XAragonite:              9.9546e-01 
XStrontianite:           4.5396e-03 
XCa:                     9.0258e-01 
XSr:                     9.7423e-02 
Misc 1:                  4.8032e-03 
Misc 2:                  8.5786e-01 

----------------------------------User print-----------------------------------

Simulation number:                4 
Reaction step number:            99 
SrCO3 added:             9.9000e-04 
Log Sigma pi:           -8.2988e+00 
XAragonite:              9.9541e-01 
XStrontianite:           4.5928e-03 
XCa:                     9.0162e-01 
XSr:                     9.8376e-02 
Misc 1:                  4.8032e-03 
Misc 2:                  8.5786e-01 

----------------------------------User print-----------------------------------

Simulation number:                4 
Reaction step number:           100 
SrCO3 added:             1.0000e-03 
Log Sigma pi:           -8.2985e+00 
XAragonite:              9.9535e-01 
XStrontianite:           4.6462e-03 
XCa:                     9.0067e-01 
XSr:                     9.9329e-02 
Misc 1:                  4.8032e-03 
Misc 2:                  8.5786e-01 

----------------------------------User print-----------------------------------

Simulation number:                4 
Reaction step number:           101 
SrCO3 added:             1.0100e-03 
Log Sigma pi:           -8.2981e+00 
XAragonite:              9.9530e-01 
XStrontianite:           4.6997e-03 
XCa:                     8.9972e-01 
XSr:                     1.0028e-01 
Misc 1:                  4.8032e-03 
Misc 2:                  8.5786e-01 

----------------------------------User print-----------------------------------

Simulation number:                4 
Reaction step number:           102 
SrCO3 added:             1.0200e-03 
Log Sigma pi:           -8.2977e+00 
XAragonite:              9.9525e-01 
XStrontianite:           4.7534e-03 
XCa:                     8.9877e-01 
XSr:                     1.0123e-01 
Misc 1:                  4.8032e-03 
Misc 2:                  8.5786e-01 

----------------------------------User print-----------------------------------

Simulation number:                4 
Reaction step number:           103 
SrCO3 added:             1.0300e-03 
Log Sigma pi:           -8.2974e+00 
XAragonite:              9.9403e-01 
XStrontianite:           5.9732e-03 
XCa:                     8.9789e-01 
XSr:                     1.0211e-01 
Misc 1:                  4.8032e-03 
Misc 2:                  8.5786e-01 

----------------------------------User print-----------------------------------

Simulation number:                4 
Reaction step number:           104 
SrCO3 added:             1.0400e-03 
Log Sigma pi:           -8.2974e+00 
XAragonite:              9.7892e-01 
XStrontianite:           2.1082e-02 
XCa:                     8.9789e-01 
XSr:                     1.0211e-01 
Misc 1:                  4.8032e-03 
Misc 2:                  8.5786e-01 

----------------------------------User print-----------------------------------

Simulation number:                4 
Reaction step number:           105 
SrCO3 added:             1.0500e-03 
Log Sigma pi:           -8.2974e+00 
XAragonite:              9.6426e-01 
XStrontianite:           3.5738e-02 
XCa:                     8.9789e-01 
XSr:                     1.0211e-01 
Misc 1:                  4.8032e-03 
Misc 2:                  8.5786e-01 

----------------------------------User print-----------------------------------

Simulation number:                4 
Reaction step number:           106 
SrCO3 added:             1.0600e-03 
Log Sigma pi:           -8.2974e+00 
XAragonite:              9.5004e-01 
XStrontianite:           4.9961e-02 
XCa:                     8.9789e-01 
XSr:                     1.0211e-01 
Misc 1:                  4.8032e-03 
Misc 2:                  8.5786e-01 

----------------------------------User print-----------------------------------

Simulation number:                4 
Reaction step number:           107 
SrCO3 added:             1.0700e-03 
Log Sigma pi:           -8.2974e+00 
XAragonite:              9.3623e-01 
XStrontianite:           6.3772e-02 
XCa:                     8.9789e-01 
XSr:                     1.0211e-01 
Misc 1:                  4.8032e-03 
Misc 2:                  8.5786e-01 

----------------------------------User print-----------------------------------

Simulation number:                4 
Reaction step number:           108 
SrCO3 added:             1.0800e-03 
Log Sigma pi:           -8.2974e+00 
XAragonite:              9.2281e-01 
XStrontianite:           7.7186e-02 
XCa:                     8.9789e-01 
XSr:                     1.0211e-01 
Misc 1:                  4.8032e-03 
Misc 2:                  8.5786e-01 

----------------------------------User print-----------------------------------

Simulation number:                4 
Reaction step number:           109 
SrCO3 added:             1.0900e-03 
Log Sigma pi:           -8.2974e+00 
XAragonite:              9.0978e-01 
XStrontianite:           9.0222e-02 
XCa:                     8.9789e-01 
XSr:                     1.0211e-01 
Misc 1:                  4.8032e-03 
Misc 2:                  8.5786e-01 

----------------------------------User print-----------------------------------

Simulation number:                4 
Reaction step number:           110 
SrCO3 added:             1.1000e-03 
Log Sigma pi:           -8.2974e+00 
XAragonite:              8.9711e-01 
XStrontianite:           1.0289e-01 
XCa:                     8.9789e-01 
XSr:                     1.0211e-01 
Misc 1:                  4.8032e-03 
Misc 2:                  8.5786e-01 

----------------------------------User print-----------------------------------

Simulation number:                4 
Reaction step number:           111 
SrCO3 added:             1.1100e-03 
Log Sigma pi:           -8.2974e+00 
XAragonite:              8.8478e-01 
XStrontianite:           1.1522e-01 
XCa:                     8.9789e-01 
XSr:                     1.0211e-01 
Misc 1:                  4.8032e-03 
Misc 2:                  8.5786e-01 

----------------------------------User print-----------------------------------

Simulation number:                4 
Reaction step number:           112 
SrCO3 added:             1.1200e-03 
Log Sigma pi:           -8.2974e+00 
XAragonite:              8.7279e-01 
XStrontianite:           1.2721e-01 
XCa:                     8.9789e-01 
XSr:                     1.0211e-01 
Misc 1:                  4.8032e-03 
Misc 2:                  8.5786e-01 

----------------------------------User print-----------------------------------

Simulation number:                4 
Reaction step number:           113 
SrCO3 added:             1.1300e-03 
Log Sigma pi:           -8.2974e+00 
XAragonite:              8.6112e-01 
XStrontianite:           1.3888e-01 
XCa:                     8.9789e-01 
XSr:                     1.0211e-01 
Misc 1:                  4.8032e-03 
Misc 2:                  8.5786e-01 

----------------------------------User print-----------------------------------

Simulation number:                4 
Reaction step number:           114 
SrCO3 added:             1.1400e-03 
Log Sigma pi:           -8.2974e+00 
XAragonite:              8.4976e-01 
XStrontianite:           1.5024e-01 
XCa:                     8.9789e-01 
XSr:                     1.0211e-01 
Misc 1:                  4.8032e-03 
Misc 2:                  8.5786e-01 

----------------------------------User print-----------------------------------

Simulation number:                4 
Reaction step number:           115 
SrCO3 added:             1.1500e-03 
Log Sigma pi:           -8.2974e+00 
XAragonite:              8.3870e-01 
XStrontianite:           1.6130e-01 
XCa:                     8.9789e-01 
XSr:                     1.0211e-01 
Misc 1:                  4.8032e-03 
Misc 2:                  8.5786e-01 

----------------------------------User print-----------------------------------

Simulation number:                4 
Reaction step number:           116 
SrCO3 added:             1.1600e-03 
Log Sigma pi:           -8.2974e+00 
XAragonite:              8.2791e-01 
XStrontianite:           1.7209e-01 
XCa:                     8.9789e-01 
XSr:                     1.0211e-01 
Misc 1:                  4.8032e-03 
Misc 2:                  8.5786e-01 

----------------------------------User print-----------------------------------

Simulation number:                4 
Reaction step number:           117 
SrCO3 added:             1.1700e-03 
Log Sigma pi:           -8.2974e+00 
XAragonite:              8.1741e-01 
XStrontianite:           1.8259e-01 
XCa:                     8.9789e-01 
XSr:                     1.0211e-01 
Misc 1:                  4.8032e-03 
Misc 2:                  8.5786e-01 

----------------------------------User print-----------------------------------

Simulation number:                4 
Reaction step number:           118 
SrCO3 added:             1.1800e-03 
Log Sigma pi:           -8.2974e+00 
XAragonite:              8.0716e-01 
XStrontianite:           1.9284e-01 
XCa:                     8.9789e-01 
XSr:                     1.0211e-01 
Misc 1:                  4.8032e-03 
Misc 2:                  8.5786e-01 

----------------------------------User print-----------------------------------

Simulation number:                4 
Reaction step number:           119 
SrCO3 added:             1.1900e-03 
Log Sigma pi:           -8.2974e+00 
XAragonite:              7.9717e-01 
XStrontianite:           2.0283e-01 
XCa:                     8.9789e-01 
XSr:                     1.0211e-01 
Misc 1:                  4.8032e-03 
Misc 2:                  8.5786e-01 

----------------------------------User print-----------------------------------

Simulation number:                4 
Reaction step number:           120 
SrCO3 added:             1.2000e-03 
Log Sigma pi:           -8.2974e+00 
XAragonite:              7.8743e-01 
XStrontianite:           2.1257e-01 
XCa:                     8.9789e-01 
XSr:                     1.0211e-01 
Misc 1:                  4.8032e-03 
Misc 2:                  8.5786e-01 

----------------------------------User print-----------------------------------

Simulation number:                4 
Reaction step number:           121 
SrCO3 added:             1.2100e-03 
Log Sigma pi:           -8.2974e+00 
XAragonite:              7.7791e-01 
XStrontianite:           2.2209e-01 
XCa:                     8.9789e-01 
XSr:                     1.0211e-01 
Misc 1:                  4.8032e-03 
Misc 2:                  8.5786e-01 

----------------------------------User print-----------------------------------

Simulation number:                4 
Reaction step number:           122 
SrCO3 added:             1.2200e-03 
Log Sigma pi:           -8.2974e+00 
XAragonite:              7.6863e-01 
XStrontianite:           2.3137e-01 
XCa:                     8.9789e-01 
XSr:                     1.0211e-01 
Misc 1:                  4.8032e-03 
Misc 2:                  8.5786e-01 

----------------------------------User print-----------------------------------

Simulation number:                4 
Reaction step number:           123 
SrCO3 added:             1.2300e-03 
Log Sigma pi:           -8.2974e+00 
XAragonite:              7.5957e-01 
XStrontianite:           2.4043e-01 
XCa:                     8.9789e-01 
XSr:                     1.0211e-01 
Misc 1:                  4.8032e-03 
Misc 2:                  8.5786e-01 

----------------------------------User print-----------------------------------

Simulation number:                4 
Reaction step number:           124 
SrCO3 added:             1.2400e-03 
Log Sigma pi:           -8.2974e+00 
XAragonite:              7.5071e-01 
XStrontianite:           2.4929e-01 
XCa:                     8.9789e-01 
XSr:                     1.0211e-01 
Misc 1:                  4.8032e-03 
Misc 2:                  8.5786e-01 

----------------------------------User print-----------------------------------

Simulation number:                4 
Reaction step number:           125 
SrCO3 added:             1.2500e-03 
Log Sigma pi:           -8.2974e+00 
XAragonite:              7.4206e-01 
XStrontianite:           2.5794e-01 
XCa:                     8.9789e-01 
XSr:                     1.0211e-01 
Misc 1:                  4.8032e-03 
Misc 2:                  8.5786e-01 

----------------------------------User print-----------------------------------

Simulation number:                4 
Reaction step number:           126 
SrCO3 added:             1.2600e-03 
Log Sigma pi:           -8.2974e+00 
XAragonite:              7.3361e-01 
XStrontianite:           2.6639e-01 
XCa:                     8.9789e-01 
XSr:                     1.0211e-01 
Misc 1:                  4.8032e-03 
Misc 2:                  8.5786e-01 

----------------------------------User print-----------------------------------

Simulation number:                4 
Reaction step number:           127 
SrCO3 added:             1.2700e-03 
Log Sigma pi:           -8.2974e+00 
XAragonite:              7.2535e-01 
XStrontianite:           2.7465e-01 
XCa:                     8.9789e-01 
XSr:                     1.0211e-01 
Misc 1:                  4.8032e-03 
Misc 2:                  8.5786e-01 

----------------------------------User print-----------------------------------

Simulation number:                4 
Reaction step number:           128 
SrCO3 added:             1.2800e-03 
Log Sigma pi:           -8.2974e+00 
XAragonite:              7.1727e-01 
XStrontianite:           2.8273e-01 
XCa:                     8.9789e-01 
XSr:                     1.0211e-01 
Misc 1:                  4.8032e-03 
Misc 2:                  8.5786e-01 

----------------------------------User print-----------------------------------

Simulation number:                4 
Reaction step number:           129 
SrCO3 added:             1.2900e-03 
Log Sigma pi:           -8.2974e+00 
XAragonite:              7.0937e-01 
XStrontianite:           2.9063e-01 
XCa:                     8.9789e-01 
XSr:                     1.0211e-01 
Misc 1:                  4.8032e-03 
Misc 2:                  8.5786e-01 

----------------------------------User print-----------------------------------

Simulation number:                4 
Reaction step number:           130 
SrCO3 added:             1.3000e-03 
Log Sigma pi:           -8.2974e+00 
XAragonite:              7.0164e-01 
XStrontianite:           2.9836e-01 
XCa:                     8.9789e-01 
XSr:                     1.0211e-01 
Misc 1:                  4.8032e-03 
Misc 2:                  8.5786e-01 

----------------------------------User print-----------------------------------

Simulation number:                4 
Reaction step number:           131 
SrCO3 added:             1.3100e-03 
Log Sigma pi:           -8.2974e+00 
XAragonite:              6.9408e-01 
XStrontianite:           3.0592e-01 
XCa:                     8.9789e-01 
XSr:                     1.0211e-01 
Misc 1:                  4.8032e-03 
Misc 2:                  8.5786e-01 

----------------------------------User print-----------------------------------

Simulation number:                4 
Reaction step number:           132 
SrCO3 added:             1.3200e-03 
Log Sigma pi:           -8.2974e+00 
XAragonite:              6.8668e-01 
XStrontianite:           3.1332e-01 
XCa:                     8.9789e-01 
XSr:                     1.0211e-01 
Misc 1:                  4.8032e-03 
Misc 2:                  8.5786e-01 

----------------------------------User print-----------------------------------

Simulation number:                4 
Reaction step number:           133 
SrCO3 added:             1.3300e-03 
Log Sigma pi:           -8.2974e+00 
XAragonite:              6.7944e-01 
XStrontianite:           3.2056e-01 
XCa:                     8.9789e-01 
XSr:                     1.0211e-01 
Misc 1:                  4.8032e-03 
Misc 2:                  8.5786e-01 

----------------------------------User print-----------------------------------

Simulation number:                4 
Reaction step number:           134 
SrCO3 added:             1.3400e-03 
Log Sigma pi:           -8.2974e+00 
XAragonite:              6.7234e-01 
XStrontianite:           3.2766e-01 
XCa:                     8.9789e-01 
XSr:                     1.0211e-01 
Misc 1:                  4.8032e-03 
Misc 2:                  8.5786e-01 

----------------------------------User print-----------------------------------

Simulation number:                4 
Reaction step number:           135 
SrCO3 added:             1.3500e-03 
Log Sigma pi:           -8.2974e+00 
XAragonite:              6.6540e-01 
XStrontianite:           3.3460e-01 
XCa:                     8.9789e-01 
XSr:                     1.0211e-01 
Misc 1:                  4.8032e-03 
Misc 2:                  8.5786e-01 

----------------------------------User print-----------------------------------

Simulation number:                4 
Reaction step number:           136 
SrCO3 added:             1.3600e-03 
Log Sigma pi:           -8.2974e+00 
XAragonite:              6.5859e-01 
XStrontianite:           3.4141e-01 
XCa:                     8.9789e-01 
XSr:                     1.0211e-01 
Misc 1:                  4.8032e-03 
Misc 2:                  8.5786e-01 

----------------------------------User print-----------------------------------

Simulation number:                4 
Reaction step number:           137 
SrCO3 added:             1.3700e-03 
Log Sigma pi:           -8.2974e+00 
XAragonite:              6.5193e-01 
XStrontianite:           3.4807e-01 
XCa:                     8.9789e-01 
XSr:                     1.0211e-01 
Misc 1:                  4.8032e-03 
Misc 2:                  8.5786e-01 

----------------------------------User print-----------------------------------

Simulation number:                4 
Reaction step number:           138 
SrCO3 added:             1.3800e-03 
Log Sigma pi:           -8.2974e+00 
XAragonite:              6.4539e-01 
XStrontianite:           3.5461e-01 
XCa:                     8.9789e-01 
XSr:                     1.0211e-01 
Misc 1:                  4.8032e-03 
Misc 2:                  8.5786e-01 

----------------------------------User print-----------------------------------

Simulation number:                4 
Reaction step number:           139 
SrCO3 added:             1.3900e-03 
Log Sigma pi:           -8.2974e+00 
XAragonite:              6.3899e-01 
XStrontianite:           3.6101e-01 
XCa:                     8.9789e-01 
XSr:                     1.0211e-01 
Misc 1:                  4.8032e-03 
Misc 2:                  8.5786e-01 

----------------------------------User print-----------------------------------

Simulation number:                4 
Reaction step number:           140 
SrCO3 added:             1.4000e-03 
Log Sigma pi:           -8.2974e+00 
XAragonite:              6.3271e-01 
XStrontianite:           3.6729e-01 
XCa:                     8.9789e-01 
XSr:                     1.0211e-01 
Misc 1:                  4.8032e-03 
Misc 2:                  8.5786e-01 

----------------------------------User print-----------------------------------

Simulation number:                4 
Reaction step number:           141 
SrCO3 added:             1.4100e-03 
Log Sigma pi:           -8.2974e+00 
XAragonite:              6.2656e-01 
XStrontianite:           3.7344e-01 
XCa:                     8.9789e-01 
XSr:                     1.0211e-01 
Misc 1:                  4.8032e-03 
Misc 2:                  8.5786e-01 

----------------------------------User print-----------------------------------

Simulation number:                4 
Reaction step number:           142 
SrCO3 added:             1.4200e-03 
Log Sigma pi:           -8.2974e+00 
XAragonite:              6.2052e-01 
XStrontianite:           3.7948e-01 
XCa:                     8.9789e-01 
XSr:                     1.0211e-01 
Misc 1:                  4.8032e-03 
Misc 2:                  8.5786e-01 

----------------------------------User print-----------------------------------

Simulation number:                4 
Reaction step number:           143 
SrCO3 added:             1.4300e-03 
Log Sigma pi:           -8.2974e+00 
XAragonite:              6.1460e-01 
XStrontianite:           3.8540e-01 
XCa:                     8.9789e-01 
XSr:                     1.0211e-01 
Misc 1:                  4.8032e-03 
Misc 2:                  8.5786e-01 

----------------------------------User print-----------------------------------

Simulation number:                4 
Reaction step number:           144 
SrCO3 added:             1.4400e-03 
Log Sigma pi:           -8.2974e+00 
XAragonite:              6.0879e-01 
XStrontianite:           3.9121e-01 
XCa:                     8.9789e-01 
XSr:                     1.0211e-01 
Misc 1:                  4.8032e-03 
Misc 2:                  8.5786e-01 

----------------------------------User print-----------------------------------

Simulation number:                4 
Reaction step number:           145 
SrCO3 added:             1.4500e-03 
Log Sigma pi:           -8.2974e+00 
XAragonite:              6.0309e-01 
XStrontianite:           3.9691e-01 
XCa:                     8.9789e-01 
XSr:                     1.0211e-01 
Misc 1:                  4.8032e-03 
Misc 2:                  8.5786e-01 

----------------------------------User print-----------------------------------

Simulation number:                4 
Reaction step number:           146 
SrCO3 added:             1.4600e-03 
Log Sigma pi:           -8.2974e+00 
XAragonite:              5.9750e-01 
XStrontianite:           4.0250e-01 
XCa:                     8.9789e-01 
XSr:                     1.0211e-01 
Misc 1:                  4.8032e-03 
Misc 2:                  8.5786e-01 

[...]
Misc 1:                  4.8032e-03 
Misc 2:                  8.5786e-01 

----------------------------------User print-----------------------------------

Simulation number:                6 
Reaction step number:            57 
SrCO3 added:             5.7000e+00 
Log Sigma pi:           -9.2418e+00 
XAragonite:              1.6416e-03 
XStrontianite:           9.9836e-01 
XCa:                     6.1464e-02 
XSr:                     9.3854e-01 
Misc 1:                  4.8032e-03 
Misc 2:                  8.5786e-01 

----------------------------------User print-----------------------------------

Simulation number:                6 
Reaction step number:            58 
SrCO3 added:             5.8000e+00 
Log Sigma pi:           -9.2423e+00 
XAragonite:              1.6141e-03 
XStrontianite:           9.9839e-01 
XCa:                     6.0492e-02 
XSr:                     9.3951e-01 
Misc 1:                  4.8032e-03 
Misc 2:                  8.5786e-01 

----------------------------------User print-----------------------------------

Simulation number:                6 
Reaction step number:            59 
SrCO3 added:             5.9000e+00 
Log Sigma pi:           -9.2427e+00 
XAragonite:              1.5876e-03 
XStrontianite:           9.9841e-01 
XCa:                     5.9551e-02 
XSr:                     9.4045e-01 
Misc 1:                  4.8032e-03 
Misc 2:                  8.5786e-01 

----------------------------------User print-----------------------------------

Simulation number:                6 
Reaction step number:            60 
SrCO3 added:                      6 
Log Sigma pi:           -9.2432e+00 
XAragonite:              1.5619e-03 
XStrontianite:           9.9844e-01 
XCa:                     5.8638e-02 
XSr:                     9.4136e-01 
Misc 1:                  4.8032e-03 
Misc 2:                  8.5786e-01 

----------------------------------User print-----------------------------------

Simulation number:                6 
Reaction step number:            61 
SrCO3 added:             6.1000e+00 
Log Sigma pi:           -9.2436e+00 
XAragonite:              1.5371e-03 
XStrontianite:           9.9846e-01 
XCa:                     5.7753e-02 
XSr:                     9.4225e-01 
Misc 1:                  4.8032e-03 
Misc 2:                  8.5786e-01 

----------------------------------User print-----------------------------------

Simulation number:                6 
Reaction step number:            62 
SrCO3 added:             6.2000e+00 
Log Sigma pi:           -9.2440e+00 
XAragonite:              1.5130e-03 
XStrontianite:           9.9849e-01 
XCa:                     5.6895e-02 
XSr:                     9.4311e-01 
Misc 1:                  4.8032e-03 
Misc 2:                  8.5786e-01 

----------------------------------User print-----------------------------------

Simulation number:                6 
Reaction step number:            63 
SrCO3 added:             6.3000e+00 
Log Sigma pi:           -9.2444e+00 
XAragonite:              1.4896e-03 
XStrontianite:           9.9851e-01 
XCa:                     5.6061e-02 
XSr:                     9.4394e-01 
Misc 1:                  4.8032e-03 
Misc 2:                  8.5786e-01 

----------------------------------User print-----------------------------------

Simulation number:                6 
Reaction step number:            64 
SrCO3 added:             6.4000e+00 
Log Sigma pi:           -9.2448e+00 
XAragonite:              1.4670e-03 
XStrontianite:           9.9853e-01 
XCa:                     5.5252e-02 
XSr:                     9.4475e-01 
Misc 1:                  4.8032e-03 
Misc 2:                  8.5786e-01 

----------------------------------User print-----------------------------------

Simulation number:                6 
Reaction step number:            65 
SrCO3 added:             6.5000e+00 
Log Sigma pi:           -9.2452e+00 
XAragonite:              1.4451e-03 
XStrontianite:           9.9855e-01 
XCa:                     5.4465e-02 
XSr:                     9.4553e-01 
Misc 1:                  4.8032e-03 
Misc 2:                  8.5786e-01 

----------------------------------User print-----------------------------------

Simulation number:                6 
Reaction step number:            66 
SrCO3 added:             6.6000e+00 
Log Sigma pi:           -9.2456e+00 
XAragonite:              1.4238e-03 
XStrontianite:           9.9858e-01 
XCa:                     5.3701e-02 
XSr:                     9.4630e-01 
Misc 1:                  4.8032e-03 
Misc 2:                  8.5786e-01 

----------------------------------User print-----------------------------------

Simulation number:                6 
Reaction step number:            67 
SrCO3 added:             6.7000e+00 
Log Sigma pi:           -9.2460e+00 
XAragonite:              1.4031e-03 
XStrontianite:           9.9860e-01 
XCa:                     5.2958e-02 
XSr:                     9.4704e-01 
Misc 1:                  4.8032e-03 
Misc 2:                  8.5786e-01 

----------------------------------User print-----------------------------------

Simulation number:                6 
Reaction step number:            68 
SrCO3 added:             6.8000e+00 
Log Sigma pi:           -9.2463e+00 
XAragonite:              1.3830e-03 
XStrontianite:           9.9862e-01 
XCa:                     5.2236e-02 
XSr:                     9.4776e-01 
Misc 1:                  4.8032e-03 
Misc 2:                  8.5786e-01 

----------------------------------User print-----------------------------------

Simulation number:                6 
Reaction step number:            69 
SrCO3 added:             6.9000e+00 
Log Sigma pi:           -9.2466e+00 
XAragonite:              1.3635e-03 
XStrontianite:           9.9864e-01 
XCa:                     5.1532e-02 
XSr:                     9.4847e-01 
Misc 1:                  4.8032e-03 
Misc 2:                  8.5786e-01 

----------------------------------User print-----------------------------------

Simulation number:                6 
Reaction step number:            70 
SrCO3 added:                      7 
Log Sigma pi:           -9.2470e+00 
XAragonite:              1.3445e-03 
XStrontianite:           9.9866e-01 
XCa:                     5.0848e-02 
XSr:                     9.4915e-01 
Misc 1:                  4.8032e-03 
Misc 2:                  8.5786e-01 

----------------------------------User print-----------------------------------

Simulation number:                6 
Reaction step number:            71 
SrCO3 added:             7.1000e+00 
Log Sigma pi:           -9.2473e+00 
XAragonite:              1.3260e-03 
XStrontianite:           9.9867e-01 
XCa:                     5.0181e-02 
XSr:                     9.4982e-01 
Misc 1:                  4.8032e-03 
Misc 2:                  8.5786e-01 

----------------------------------User print-----------------------------------

Simulation number:                6 
Reaction step number:            72 
SrCO3 added:             7.2000e+00 
Log Sigma pi:           -9.2476e+00 
XAragonite:              1.3081e-03 
XStrontianite:           9.9869e-01 
XCa:                     4.9532e-02 
XSr:                     9.5047e-01 
Misc 1:                  4.8032e-03 
Misc 2:                  8.5786e-01 

----------------------------------User print-----------------------------------

Simulation number:                6 
Reaction step number:            73 
SrCO3 added:             7.3000e+00 
Log Sigma pi:           -9.2479e+00 
XAragonite:              1.2906e-03 
XStrontianite:           9.9871e-01 
XCa:                     4.8899e-02 
XSr:                     9.5110e-01 
Misc 1:                  4.8032e-03 
Misc 2:                  8.5786e-01 

----------------------------------User print-----------------------------------

Simulation number:                6 
Reaction step number:            74 
SrCO3 added:             7.4000e+00 
Log Sigma pi:           -9.2482e+00 
XAragonite:              1.2736e-03 
XStrontianite:           9.9873e-01 
XCa:                     4.8282e-02 
XSr:                     9.5172e-01 
Misc 1:                  4.8032e-03 
Misc 2:                  8.5786e-01 

----------------------------------User print-----------------------------------

Simulation number:                6 
Reaction step number:            75 
SrCO3 added:             7.5000e+00 
Log Sigma pi:           -9.2485e+00 
XAragonite:              1.2570e-03 
XStrontianite:           9.9874e-01 
XCa:                     4.7681e-02 
XSr:                     9.5232e-01 
Misc 1:                  4.8032e-03 
Misc 2:                  8.5786e-01 

----------------------------------User print-----------------------------------

Simulation number:                6 
Reaction step number:            76 
SrCO3 added:             7.6000e+00 
Log Sigma pi:           -9.2488e+00 
XAragonite:              1.2409e-03 
XStrontianite:           9.9876e-01 
XCa:                     4.7094e-02 
XSr:                     9.5291e-01 
Misc 1:                  4.8032e-03 
Misc 2:                  8.5786e-01 

----------------------------------User print-----------------------------------

Simulation number:                6 
Reaction step number:            77 
SrCO3 added:             7.7000e+00 
Log Sigma pi:           -9.2491e+00 
XAragonite:              1.2251e-03 
XStrontianite:           9.9877e-01 
XCa:                     4.6522e-02 
XSr:                     9.5348e-01 
Misc 1:                  4.8032e-03 
Misc 2:                  8.5786e-01 

----------------------------------User print-----------------------------------

Simulation number:                6 
Reaction step number:            78 
SrCO3 added:             7.8000e+00 
Log Sigma pi:           -9.2493e+00 
XAragonite:              1.2098e-03 
XStrontianite:           9.9879e-01 
XCa:                     4.5963e-02 
XSr:                     9.5404e-01 
Misc 1:                  4.8032e-03 
Misc 2:                  8.5786e-01 

----------------------------------User print-----------------------------------

Simulation number:                6 
Reaction step number:            79 
SrCO3 added:             7.9000e+00 
Log Sigma pi:           -9.2496e+00 
XAragonite:              1.1948e-03 
XStrontianite:           9.9881e-01 
XCa:                     4.5418e-02 
XSr:                     9.5458e-01 
Misc 1:                  4.8032e-03 
Misc 2:                  8.5786e-01 

----------------------------------User print-----------------------------------

Simulation number:                6 
Reaction step number:            80 
SrCO3 added:                      8 
Log Sigma pi:           -9.2499e+00 
XAragonite:              1.1802e-03 
XStrontianite:           9.9882e-01 
XCa:                     4.4886e-02 
XSr:                     9.5511e-01 
Misc 1:                  4.8032e-03 
Misc 2:                  8.5786e-01 

----------------------------------User print-----------------------------------

Simulation number:                6 
Reaction step number:            81 
SrCO3 added:             8.1000e+00 
Log Sigma pi:           -9.2501e+00 
XAragonite:              1.1660e-03 
XStrontianite:           9.9883e-01 
XCa:                     4.4365e-02 
XSr:                     9.5563e-01 
Misc 1:                  4.8032e-03 
Misc 2:                  8.5786e-01 

----------------------------------User print-----------------------------------

Simulation number:                6 
Reaction step number:            82 
SrCO3 added:             8.2000e+00 
Log Sigma pi:           -9.2503e+00 
XAragonite:              1.1521e-03 
XStrontianite:           9.9885e-01 
XCa:                     4.3857e-02 
XSr:                     9.5614e-01 
Misc 1:                  4.8032e-03 
Misc 2:                  8.5786e-01 

----------------------------------User print-----------------------------------

Simulation number:                6 
Reaction step number:            83 
SrCO3 added:             8.3000e+00 
Log Sigma pi:           -9.2506e+00 
XAragonite:              1.1385e-03 
XStrontianite:           9.9886e-01 
XCa:                     4.3361e-02 
XSr:                     9.5664e-01 
Misc 1:                  4.8032e-03 
Misc 2:                  8.5786e-01 

----------------------------------User print-----------------------------------

Simulation number:                6 
Reaction step number:            84 
SrCO3 added:             8.4000e+00 
Log Sigma pi:           -9.2508e+00 
XAragonite:              1.1253e-03 
XStrontianite:           9.9887e-01 
XCa:                     4.2875e-02 
XSr:                     9.5713e-01 
Misc 1:                  4.8032e-03 
Misc 2:                  8.5786e-01 

----------------------------------User print-----------------------------------

Simulation number:                6 
Reaction step number:            85 
SrCO3 added:             8.5000e+00 
Log Sigma pi:           -9.2510e+00 
XAragonite:              1.1123e-03 
XStrontianite:           9.9889e-01 
XCa:                     4.2400e-02 
XSr:                     9.5760e-01 
Misc 1:                  4.8032e-03 
Misc 2:                  8.5786e-01 

----------------------------------User print-----------------------------------

Simulation number:                6 
Reaction step number:            86 
SrCO3 added:             8.6000e+00 
Log Sigma pi:           -9.2513e+00 
XAragonite:              1.0996e-03 
XStrontianite:           9.9890e-01 
XCa:                     4.1936e-02 
XSr:                     9.5806e-01 
Misc 1:                  4.8032e-03 
Misc 2:                  8.5786e-01 

----------------------------------User print-----------------------------------

Simulation number:                6 
Reaction step number:            87 
SrCO3 added:             8.7000e+00 
Log Sigma pi:           -9.2515e+00 
XAragonite:              1.0873e-03 
XStrontianite:           9.9891e-01 
XCa:                     4.1481e-02 
XSr:                     9.5852e-01 
Misc 1:                  4.8032e-03 
Misc 2:                  8.5786e-01 

----------------------------------User print-----------------------------------

Simulation number:                6 
Reaction step number:            88 
SrCO3 added:             8.8000e+00 
Log Sigma pi:           -9.2517e+00 
XAragonite:              1.0752e-03 
XStrontianite:           9.9892e-01 
XCa:                     4.1037e-02 
XSr:                     9.5896e-01 
Misc 1:                  4.8032e-03 
Misc 2:                  8.5786e-01 

----------------------------------User print-----------------------------------

Simulation number:                6 
Reaction step number:            89 
SrCO3 added:             8.9000e+00 
Log Sigma pi:           -9.2519e+00 
XAragonite:              1.0633e-03 
XStrontianite:           9.9894e-01 
XCa:                     4.0602e-02 
XSr:                     9.5940e-01 
Misc 1:                  4.8032e-03 
Misc 2:                  8.5786e-01 

----------------------------------User print-----------------------------------

Simulation number:                6 
Reaction step number:            90 
SrCO3 added:                      9 
Log Sigma pi:           -9.2521e+00 
XAragonite:              1.0518e-03 
XStrontianite:           9.9895e-01 
XCa:                     4.0176e-02 
XSr:                     9.5982e-01 
Misc 1:                  4.8032e-03 
Misc 2:                  8.5786e-01 

----------------------------------User print-----------------------------------

Simulation number:                6 
Reaction step number:            91 
SrCO3 added:             9.1000e+00 
Log Sigma pi:           -9.2523e+00 
XAragonite:              1.0404e-03 
XStrontianite:           9.9896e-01 
XCa:                     3.9758e-02 
XSr:                     9.6024e-01 
Misc 1:                  4.8032e-03 
Misc 2:                  8.5786e-01 

----------------------------------User print-----------------------------------

Simulation number:                6 
Reaction step number:            92 
SrCO3 added:             9.2000e+00 
Log Sigma pi:           -9.2525e+00 
XAragonite:              1.0294e-03 
XStrontianite:           9.9897e-01 
XCa:                     3.9350e-02 
XSr:                     9.6065e-01 
Misc 1:                  4.8032e-03 
Misc 2:                  8.5786e-01 

----------------------------------User print-----------------------------------

Simulation number:                6 
Reaction step number:            93 
SrCO3 added:             9.3000e+00 
Log Sigma pi:           -9.2527e+00 
XAragonite:              1.0185e-03 
XStrontianite:           9.9898e-01 
XCa:                     3.8949e-02 
XSr:                     9.6105e-01 
Misc 1:                  4.8032e-03 
Misc 2:                  8.5786e-01 

----------------------------------User print-----------------------------------

Simulation number:                6 
Reaction step number:            94 
SrCO3 added:             9.4000e+00 
Log Sigma pi:           -9.2529e+00 
XAragonite:              1.0079e-03 
XStrontianite:           9.9899e-01 
XCa:                     3.8557e-02 
XSr:                     9.6144e-01 
Misc 1:                  4.8032e-03 
Misc 2:                  8.5786e-01 

----------------------------------User print-----------------------------------

Simulation number:                6 
Reaction step number:            95 
SrCO3 added:             9.5000e+00 
Log Sigma pi:           -9.2531e+00 
XAragonite:              9.9748e-04 
XStrontianite:           9.9900e-01 
XCa:                     3.8173e-02 
XSr:                     9.6183e-01 
Misc 1:                  4.8032e-03 
Misc 2:                  8.5786e-01 

----------------------------------User print-----------------------------------

Simulation number:                6 
Reaction step number:            96 
SrCO3 added:             9.6000e+00 
Log Sigma pi:           -9.2533e+00 
XAragonite:              9.8729e-04 
XStrontianite:           9.9901e-01 
XCa:                     3.7796e-02 
XSr:                     9.6220e-01 
Misc 1:                  4.8032e-03 
Misc 2:                  8.5786e-01 

----------------------------------User print-----------------------------------

Simulation number:                6 
Reaction step number:            97 
SrCO3 added:             9.7000e+00 
Log Sigma pi:           -9.2534e+00 
XAragonite:              9.7731e-04 
XStrontianite:           9.9902e-01 
XCa:                     3.7427e-02 
XSr:                     9.6257e-01 
Misc 1:                  4.8032e-03 
Misc 2:                  8.5786e-01 

----------------------------------User print-----------------------------------

Simulation number:                6 
Reaction step number:            98 
SrCO3 added:             9.8000e+00 
Log Sigma pi:           -9.2536e+00 
XAragonite:              9.6752e-04 
XStrontianite:           9.9903e-01 
XCa:                     3.7064e-02 
XSr:                     9.6294e-01 
Misc 1:                  4.8032e-03 
Misc 2:                  8.5786e-01 

----------------------------------User print-----------------------------------

Simulation number:                6 
Reaction step number:            99 
SrCO3 added:             9.9000e+00 
Log Sigma pi:           -9.2538e+00 
XAragonite:              9.5793e-04 
XStrontianite:           9.9904e-01 
XCa:                     3.6709e-02 
XSr:                     9.6329e-01 
Misc 1:                  4.8032e-03 
Misc 2:                  8.5786e-01 

----------------------------------User print-----------------------------------

Simulation number:                6 
Reaction step number:           100 
SrCO3 added:                     10 
Log Sigma pi:           -9.2539e+00 
XAragonite:              9.4853e-04 
XStrontianite:           9.9905e-01 
XCa:                     3.6360e-02 
XSr:                     9.6364e-01 
Misc 1:                  4.8032e-03 
Misc 2:                  8.5786e-01 

