   Input file: ../examples/ex18
  Output file: ex18.out
Database file: ../database/phreeqc.dat

------------------
Reading data base.
------------------

	SOLUTION_MASTER_SPECIES
	SOLUTION_SPECIES
	PHASES
	GAS_BINARY_PARAMETERS
	EXCHANGE_MASTER_SPECIES
	EXCHANGE_SPECIES
	SURFACE_MASTER_SPECIES
	SURFACE_SPECIES
	MEAN_GAMMAS
	RATES
	END
------------------------------------
Reading input data for simulation 1.
------------------------------------

	TITLE Example 18.--Inverse modeling of Madison aquifer
	SOLUTION 1 Recharge number 3
	        units   mmol/kgw
	        temp    9.9
	        pe      0.
	        pH      7.55
	        Ca      1.2
	        Mg      1.01
	        Na      0.02
	        K       0.02
	        Fe(2)   0.001
	        Cl      0.02
	        S(6)    0.16
	        S(-2)   0
	        C(4)    4.30
	        isotope      13C     -7.0    1.4    
	        isotope      34S     9.7     0.9    
	SOLUTION 2 Mysse
	        units   mmol/kgw
	        temp    63.
	        pH      6.61
	        pe      0.      
	        redox   S(6)/S(-2)
	        Ca      11.28
	        Mg      4.54
	        Na      31.89
	        K       2.54
	        Fe(2)   0.0004
	        Cl      17.85
	        S(6)    19.86
	        S(-2)   0.26
	        C(4)    6.87
	        isotope      13C     -2.3    0.2   
	        isotope      34S(6)  16.3    1.5   
	        isotope      34S(-2) -22.1   7     
	INVERSE_MODELING 1
	        solutions 1 2 
	        uncertainty 0.05
	        range
	        isotopes
	                13C
	                34S
	        balances
	                Fe(2)   1.0
	                ph      0.1
	        phases
	                Dolomite        dis     13C     3.0     2
	                Calcite         pre     13C     -1.5    1
	                Anhydrite       dis     34S     13.5    2
	                CH2O            dis     13C     -25.0   5
	                Goethite
	                Pyrite          pre     34S     -22.    2
	                CaX2            pre
	                Ca.75Mg.25X2    pre
	                MgX2            pre
	                NaX
	                Halite
	                Sylvite
	PHASES
	   Sylvite
	        KCl = K+ + Cl-
	        log_k  0.0
	   CH2O
	        CH2O + H2O = CO2 + 4H+ + 4e-
	        log_k  0.0
	EXCHANGE_SPECIES
	        0.75Ca+2 + 0.25Mg+2 + 2X- = Ca.75Mg.25X2
	        log_k   0.0
	END
-----
TITLE
-----

 Example 18.--Inverse modeling of Madison aquifer

-------------------------------------------
Beginning of initial solution calculations.
-------------------------------------------

Initial solution 1.	Recharge number 3

-----------------------------Solution composition------------------------------

	Elements           Molality       Moles

	C(4)              4.300e-03   4.300e-03
	Ca                1.200e-03   1.200e-03
	Cl                2.000e-05   2.000e-05
	Fe(2)             1.000e-06   1.000e-06
	K                 2.000e-05   2.000e-05
	Mg                1.010e-03   1.010e-03
	Na                2.000e-05   2.000e-05
	S(6)              1.600e-04   1.600e-04

----------------------------Description of solution----------------------------

                                       pH  =   7.550    
                                       pe  =   0.000    
      Specific Conductance (µS/cm,  10°C)  = 277
                          Density (g/cm³)  =   0.99999
                               Volume (L)  =   1.00035
                        Viscosity (mPa s)  =   1.31332
                        Activity of water  =   1.000
                 Ionic strength (mol/kgw)  =   6.622e-03
                       Mass of water (kg)  =   1.000e+00
                 Total alkalinity (eq/kg)  =   4.014e-03
                       Total CO2 (mol/kg)  =   4.300e-03
                         Temperature (°C)  =   9.90
                  Electrical balance (eq)  =   1.080e-04
 Percent error, 100*(Cat-|An|)/(Cat+|An|)  =   1.25
                               Iterations  =   8
                                  Total H  = 1.110164e+02
                                  Total O  = 5.551946e+01

----------------------------Distribution of species----------------------------

                                               Log       Log       Log    mole V
   Species          Molality    Activity  Molality  Activity     Gamma   cm³/mol

   OH-             1.127e-07   1.034e-07    -6.948    -6.985    -0.037     -4.98
   H+              3.039e-08   2.818e-08    -7.517    -7.550    -0.033      0.00
   H2O             5.551e+01   9.999e-01     1.744    -0.000     0.000     18.02
C(4)          4.300e-03
   HCO3-           3.957e-03   3.647e-03    -2.403    -2.438    -0.035     23.05
   CO2             2.991e-04   2.994e-04    -3.524    -3.524     0.000     34.06
   MgHCO3+         3.109e-05   2.858e-05    -4.507    -4.544    -0.037      4.93
   CO3-2           5.815e-06   4.196e-06    -5.235    -5.377    -0.142     -6.51
   CaCO3           4.901e-06   4.909e-06    -5.310    -5.309     0.001    -14.66
   MgCO3           2.214e-06   2.217e-06    -5.655    -5.654     0.001    -17.07
   FeHCO3+         2.094e-07   1.926e-07    -6.679    -6.715    -0.036     (0)  
   FeCO3           5.306e-08   5.314e-08    -7.275    -7.275     0.001     (0)  
   NaHCO3          2.805e-08   2.811e-08    -7.552    -7.551     0.001     16.16
   KHCO3           2.302e-08   2.305e-08    -7.638    -7.637     0.001     20.02
   (CO2)2          6.066e-10   6.072e-10    -9.217    -9.217     0.000     67.28
   CaHCO3+         8.714e-12   8.040e-12   -11.060   -11.095    -0.035      8.96
Ca            1.200e-03
   Ca+2            1.188e-03   8.567e-04    -2.925    -3.067    -0.142    -18.31
   CaSO4           7.231e-06   7.236e-06    -5.141    -5.140     0.000      5.22
   CaCO3           4.901e-06   4.909e-06    -5.310    -5.309     0.001    -14.66
   CaOH+           5.486e-09   5.044e-09    -8.261    -8.297    -0.036     (0)  
   CaHCO3+         8.714e-12   8.040e-12   -11.060   -11.095    -0.035      8.96
   CaHSO4+         2.275e-12   2.092e-12   -11.643   -11.679    -0.036     (0)  
Cl            2.000e-05
   Cl-             2.000e-05   1.837e-05    -4.699    -4.736    -0.037     17.40
   FeCl+           1.456e-11   1.339e-11   -10.837   -10.873    -0.036     (0)  
   HCl             1.947e-13   1.959e-13   -12.711   -12.708     0.003     19.04
Fe(2)         1.000e-06
   Fe+2            7.285e-07   5.280e-07    -6.138    -6.277    -0.140    -23.19
   FeHCO3+         2.094e-07   1.926e-07    -6.679    -6.715    -0.036     (0)  
   FeCO3           5.306e-08   5.314e-08    -7.275    -7.275     0.001     (0)  
   FeSO4           7.068e-09   7.079e-09    -8.151    -8.150     0.001     28.98
   FeOH+           1.960e-09   1.805e-09    -8.708    -8.744    -0.036     (0)  
   FeCl+           1.456e-11   1.339e-11   -10.837   -10.873    -0.036     (0)  
   Fe(OH)2         1.364e-13   1.366e-13   -12.865   -12.864     0.001     (0)  
   FeHSO4+         1.402e-15   1.289e-15   -14.853   -14.890    -0.036     (0)  
   Fe(OH)3-        1.673e-16   1.541e-16   -15.777   -15.812    -0.036     (0)  
H(0)          1.316e-18
   H2              6.578e-19   6.588e-19   -18.182   -18.181     0.001     13.62
K             2.000e-05
   K+              1.995e-05   1.832e-05    -4.700    -4.737    -0.037      8.43
   KSO4-           2.930e-08   2.709e-08    -7.533    -7.567    -0.034     20.63
   KHCO3           2.302e-08   2.305e-08    -7.638    -7.637     0.001     20.02
Mg            1.010e-03
   Mg+2            9.642e-04   6.984e-04    -3.016    -3.156    -0.140    -21.10
   MgHCO3+         3.109e-05   2.858e-05    -4.507    -4.544    -0.037      4.93
   MgSO4           1.243e-05   1.247e-05    -4.905    -4.904     0.001     -2.04
   MgCO3           2.214e-06   2.217e-06    -5.655    -5.654     0.001    -17.07
   MgOH+           2.317e-08   2.139e-08    -7.635    -7.670    -0.035     (0)  
   Mg(SO4)2-2      7.628e-09   5.573e-09    -8.118    -8.254    -0.136     31.78
Na            2.000e-05
   Na+             1.996e-05   1.837e-05    -4.700    -4.736    -0.036     -2.42
   NaHCO3          2.805e-08   2.811e-08    -7.552    -7.551     0.001     16.16
   NaSO4-          1.495e-08   1.375e-08    -7.825    -7.862    -0.036     16.08
   Na2SO4          2.464e-17   2.468e-17   -16.608   -16.608     0.001     57.39
O(0)          0.000e+00
   O2              0.000e+00   0.000e+00   -61.300   -61.299     0.001     28.94
S(6)          1.600e-04
   SO4-2           1.403e-04   1.008e-04    -3.853    -3.996    -0.143     11.58
   MgSO4           1.243e-05   1.247e-05    -4.905    -4.904     0.001     -2.04
   CaSO4           7.231e-06   7.236e-06    -5.141    -5.140     0.000      5.22
   KSO4-           2.930e-08   2.709e-08    -7.533    -7.567    -0.034     20.63
   NaSO4-          1.495e-08   1.375e-08    -7.825    -7.862    -0.036     16.08
   Mg(SO4)2-2      7.628e-09   5.573e-09    -8.118    -8.254    -0.136     31.78
   FeSO4           7.068e-09   7.079e-09    -8.151    -8.150     0.001     28.98
   HSO4-           2.209e-10   2.031e-10    -9.656    -9.692    -0.036     38.92
   CaHSO4+         2.275e-12   2.092e-12   -11.643   -11.679    -0.036     (0)  
   FeHSO4+         1.402e-15   1.289e-15   -14.853   -14.890    -0.036     (0)  
   Na2SO4          2.464e-17   2.468e-17   -16.608   -16.608     0.001     57.39

------------------------------Saturation indices-------------------------------

  Phase               SI** log IAP   log K(283 K,   1 atm)

  Anhydrite        -2.98     -7.06   -4.08  CaSO4
  Aragonite        -0.19     -8.44   -8.25  CaCO3
  Arcanite        -11.36    -13.47   -2.11  K2SO4
  Calcite          -0.10     -8.44   -8.35  CaCO3
  CH2O            -33.72    -33.72    0.00  CH2O
  CO2(g)           -2.26     -3.52   -1.27  CO2
  Dolomite         -0.10    -16.98  -16.88  CaMg(CO3)2
  Epsomite         -5.32     -7.15   -1.83  MgSO4:7H2O
  Gypsum           -2.55     -7.06   -4.51  CaSO4:2H2O
  H2(g)           -15.12    -18.18   -3.06  H2
  H2O(g)           -1.91     -0.00    1.91  H2O
  Halite          -11.03     -9.47    1.56  NaCl
  Hexahydrite      -5.57     -7.15   -1.59  MgSO4:6H2O
  Kieserite        -5.84     -7.15   -1.32  MgSO4:H2O
  Melanterite      -7.86    -10.27   -2.41  FeSO4:7H2O
  Mirabilite      -11.70    -13.47   -1.76  Na2SO4:10H2O
  O2(g)           -58.53    -61.30   -2.76  O2
  Siderite         -0.86    -11.65  -10.79  FeCO3
  Sylvite          -9.47     -9.47    0.00  KCl
  Thenardite      -14.31    -13.47    0.84  Na2SO4

**For a gas, SI = log10(fugacity). Fugacity = pressure * phi / 1 atm.
  For ideal gases, phi = 1.

Initial solution 2.	Mysse

-----------------------------Solution composition------------------------------

	Elements           Molality       Moles

	C(4)              6.870e-03   6.870e-03
	Ca                1.128e-02   1.128e-02
	Cl                1.785e-02   1.785e-02
	Fe(2)             4.000e-07   4.000e-07
	K                 2.540e-03   2.540e-03
	Mg                4.540e-03   4.540e-03
	Na                3.189e-02   3.189e-02
	S(-2)             2.600e-04   2.600e-04
	S(6)              1.986e-02   1.986e-02

----------------------------Description of solution----------------------------

                                       pH  =   6.610    
                                       pe  =   0.000    
      Specific Conductance (µS/cm,  63°C)  = 9823
                          Density (g/cm³)  =   0.98523
                               Volume (L)  =   1.01939
                        Viscosity (mPa s)  =   0.45175
                        Activity of water  =   0.999
                 Ionic strength (mol/kgw)  =   6.634e-02
                       Mass of water (kg)  =   1.000e+00
                 Total alkalinity (eq/kg)  =   5.175e-03
                       Total CO2 (mol/kg)  =   6.870e-03
                         Temperature (°C)  =  63.00
                  Electrical balance (eq)  =   3.326e-03
 Percent error, 100*(Cat-|An|)/(Cat+|An|)  =   3.50
                               Iterations  =   9 (17 overall)
                                  Total H  = 1.110178e+02
                                  Total O  = 5.560441e+01

---------------------------------Redox couples---------------------------------

	Redox couple             pe  Eh (volts)

	S(-2)/S(6)          -3.6572     -0.2439

----------------------------Distribution of species----------------------------

                                               Log       Log       Log    mole V
   Species          Molality    Activity  Molality  Activity     Gamma   cm³/mol

   OH-             5.918e-07   4.608e-07    -6.228    -6.337    -0.109     -3.65
   H+              2.949e-07   2.455e-07    -6.530    -6.610    -0.080      0.00
   H2O             5.551e+01   9.985e-01     1.744    -0.001     0.000     18.35
C(4)          6.870e-03
   HCO3-           4.845e-03   3.884e-03    -2.315    -2.411    -0.096     26.37
   CO2             1.862e-03   1.881e-03    -2.730    -2.726     0.004     36.65
   NaHCO3          7.096e-05   7.261e-05    -4.149    -4.139     0.010     19.55
   MgHCO3+         6.700e-05   5.259e-05    -4.174    -4.279    -0.105      6.10
   CaCO3           1.448e-05   1.470e-05    -4.839    -4.833     0.007    -14.51
   KHCO3           5.412e-06   5.495e-06    -5.267    -5.260     0.007     23.21
   CO3-2           2.804e-06   1.153e-06    -5.552    -5.938    -0.386     -2.97
   MgCO3           1.673e-06   1.699e-06    -5.776    -5.770     0.007    -17.09
   CaHCO3+         7.707e-07   6.218e-07    -6.113    -6.206    -0.093     10.65
   (CO2)2          2.143e-07   2.165e-07    -6.669    -6.665     0.004     72.47
   FeHCO3+         1.223e-08   9.677e-09    -7.913    -8.014    -0.102     (0)  
   FeCO3           6.785e-10   6.889e-10    -9.168    -9.162     0.007     (0)  
Ca            1.128e-02
   Ca+2            6.283e-03   2.592e-03    -2.202    -2.586    -0.385    -17.60
   CaSO4           4.982e-03   5.016e-03    -2.303    -2.300     0.003      9.78
   CaCO3           1.448e-05   1.470e-05    -4.839    -4.833     0.007    -14.51
   CaHCO3+         7.707e-07   6.218e-07    -6.113    -6.206    -0.093     10.65
   CaHSO4+         1.007e-08   7.970e-09    -7.997    -8.099    -0.102     (0)  
   CaOH+           2.211e-09   1.750e-09    -8.655    -8.757    -0.102     (0)  
Cl            1.785e-02
   Cl-             1.785e-02   1.396e-02    -1.748    -1.855    -0.107     18.28
   HCl             8.741e-10   9.328e-10    -9.058    -9.030     0.028     22.11
   FeCl+           6.069e-10   4.803e-10    -9.217    -9.318    -0.102     (0)  
Fe(2)         4.000e-07
   Fe(HS)2         2.886e-07   2.930e-07    -6.540    -6.533     0.007     (0)  
   Fe+2            5.882e-08   2.492e-08    -7.231    -7.603    -0.373    -19.97
   FeSO4           3.394e-08   3.446e-08    -7.469    -7.463     0.007     32.00
   FeHCO3+         1.223e-08   9.677e-09    -7.913    -8.014    -0.102     (0)  
   Fe(HS)3-        4.632e-09   3.666e-09    -8.334    -8.436    -0.102     (0)  
   FeCO3           6.785e-10   6.889e-10    -9.168    -9.162     0.007     (0)  
   FeCl+           6.069e-10   4.803e-10    -9.217    -9.318    -0.102     (0)  
   FeOH+           4.995e-10   3.978e-10    -9.302    -9.400    -0.099     (0)  
   Fe(OH)2         2.544e-13   2.583e-13   -12.594   -12.588     0.007     (0)  
   FeHSO4+         9.682e-14   7.662e-14   -13.014   -13.116    -0.102     (0)  
   Fe(OH)3-        6.826e-17   5.436e-17   -16.166   -16.265    -0.099     (0)  
H(0)          1.238e-09
   H2              6.190e-10   6.290e-10    -9.208    -9.201     0.007     16.98
K             2.540e-03
   K+              2.349e-03   1.833e-03    -2.629    -2.737    -0.108     10.00
   KSO4-           1.861e-04   1.534e-04    -3.730    -3.814    -0.084     22.75
   KHCO3           5.412e-06   5.495e-06    -5.267    -5.260     0.007     23.21
Mg            4.540e-03
   MgSO4           2.406e-03   2.480e-03    -2.619    -2.605     0.013      1.75
   Mg+2            2.023e-03   8.619e-04    -2.694    -3.065    -0.371    -22.51
   MgHCO3+         6.700e-05   5.259e-05    -4.174    -4.279    -0.105      6.10
   Mg(SO4)2-2      4.181e-05   1.869e-05    -4.379    -4.728    -0.350     53.86
   MgCO3           1.673e-06   1.699e-06    -5.776    -5.770     0.007    -17.09
   MgOH+           3.291e-07   2.671e-07    -6.483    -6.573    -0.091     (0)  
Na            3.189e-02
   Na+             3.012e-02   2.397e-02    -1.521    -1.620    -0.099      0.08
   NaSO4-          1.700e-03   1.345e-03    -2.770    -2.871    -0.102     17.70
   NaHCO3          7.096e-05   7.261e-05    -4.149    -4.139     0.010     19.55
   Na2SO4          4.057e-07   4.112e-07    -6.392    -6.386     0.006     35.74
O(0)          0.000e+00
   O2              0.000e+00   0.000e+00   -62.997   -62.990     0.007     32.51
S(-2)         2.600e-04
   HS-             1.475e-04   1.149e-04    -3.831    -3.940    -0.109     21.37
   H2S             1.119e-04   1.136e-04    -3.951    -3.945     0.007     42.59
   Fe(HS)2         2.886e-07   2.930e-07    -6.540    -6.533     0.007     (0)  
   Fe(HS)3-        4.632e-09   3.666e-09    -8.334    -8.436    -0.102     (0)  
   S-2             1.413e-09   5.686e-10    -8.850    -9.245    -0.395     (0)  
   (H2S)2          1.361e-09   1.382e-09    -8.866    -8.859     0.007     27.88
S(6)          1.986e-02
   SO4-2           1.050e-02   4.199e-03    -1.979    -2.377    -0.398     16.55
   CaSO4           4.982e-03   5.016e-03    -2.303    -2.300     0.003      9.78
   MgSO4           2.406e-03   2.480e-03    -2.619    -2.605     0.013      1.75
   NaSO4-          1.700e-03   1.345e-03    -2.770    -2.871    -0.102     17.70
   KSO4-           1.861e-04   1.534e-04    -3.730    -3.814    -0.084     22.75
   Mg(SO4)2-2      4.181e-05   1.869e-05    -4.379    -4.728    -0.350     53.86
   Na2SO4          4.057e-07   4.112e-07    -6.392    -6.386     0.006     35.74
   HSO4-           3.232e-07   2.558e-07    -6.491    -6.592    -0.102     41.69
   FeSO4           3.394e-08   3.446e-08    -7.469    -7.463     0.007     32.00
   CaHSO4+         1.007e-08   7.970e-09    -7.997    -8.099    -0.102     (0)  
   FeHSO4+         9.682e-14   7.662e-14   -13.014   -13.116    -0.102     (0)  

------------------------------Saturation indices-------------------------------

  Phase               SI** log IAP   log K(336 K,   1 atm)

  Anhydrite        -0.01     -4.96   -4.96  CaSO4
  Aragonite         0.15     -8.52   -8.67  CaCO3
  Arcanite         -6.30     -7.85   -1.55  K2SO4
  Calcite           0.32     -8.52   -8.84  CaCO3
  CH2O            -14.54    -14.54    0.00  CH2O
  CO2(g)           -0.92     -2.73   -1.80  CO2
  Dolomite          0.53    -17.53  -18.06  CaMg(CO3)2
  Epsomite         -3.94     -5.45   -1.50  MgSO4:7H2O
  FeS(ppt)         -1.02     -4.93   -3.92  FeS
  Gypsum           -0.15     -4.96   -4.82  CaSO4:2H2O
  H2(g)            -6.07     -9.20   -3.13  H2
  H2O(g)           -0.65     -0.00    0.65  H2O
  H2S(g)           -2.63    -10.55   -7.92  H2S
  Halite           -5.07     -3.48    1.60  NaCl
  Hexahydrite      -3.93     -5.45   -1.51  MgSO4:6H2O
  Kieserite        -4.12     -5.44   -1.32  MgSO4:H2O
  Mackinawite      -0.29     -4.93   -4.65  FeS
  Melanterite      -8.13     -9.98   -1.85  FeSO4:7H2O
  Mirabilite       -7.91     -5.62    2.28  Na2SO4:10H2O
  O2(g)           -59.92    -62.99   -3.07  O2
  Pyrite            7.97     -9.58  -17.54  FeS2
  Siderite         -2.45    -13.54  -11.10  FeCO3
  Sulfur           -2.13      1.96    4.09  S
  Sylvite          -4.59     -4.59    0.00  KCl
  Thenardite       -5.70     -5.62    0.09  Na2SO4

**For a gas, SI = log10(fugacity). Fugacity = pressure * phi / 1 atm.
  For ideal gases, phi = 1.

---------------------------------------------
Beginning of inverse modeling 1 calculations.
---------------------------------------------

Using Cl1 standard precision optimization routine.

Solution 1: Recharge number 3

                         Input          Delta    Input+Delta
             pH      7.550e+00  +   0.000e+00  =   7.550e+00
     Alkalinity      4.014e-03  +   1.080e-04  =   4.122e-03
          C(-4)      0.000e+00  +   0.000e+00  =   0.000e+00
           C(4)      4.300e-03  +   0.000e+00  =   4.300e-03
             Ca      1.200e-03  +   0.000e+00  =   1.200e-03
             Cl      2.000e-05  +   0.000e+00  =   2.000e-05
          Fe(2)      1.000e-06  +   0.000e+00  =   1.000e-06
          Fe(3)      0.000e+00  +   0.000e+00  =   0.000e+00
           H(0)      0.000e+00  +   0.000e+00  =   0.000e+00
              K      2.000e-05  +   0.000e+00  =   2.000e-05
             Mg      1.010e-03  +   0.000e+00  =   1.010e-03
             Na      2.000e-05  +   0.000e+00  =   2.000e-05
           O(0)      0.000e+00  +   0.000e+00  =   0.000e+00
          S(-2)      0.000e+00  +   0.000e+00  =   0.000e+00
           S(6)      1.600e-04  +   0.000e+00  =   1.600e-04
              X      0.000e+00  +   0.000e+00  =   0.000e+00
        13C(-4)             -7  +           0  =          -7
         13C(4)             -7  +           0  =          -7
        34S(-2)            9.7  +           0  =         9.7
         34S(6)            9.7  +           0  =         9.7

Solution 2: Mysse

                         Input          Delta    Input+Delta
             pH      6.610e+00  +   0.000e+00  =   6.610e+00
     Alkalinity      5.175e-03  +   0.000e+00  =   5.175e-03
          C(-4)      0.000e+00  +   0.000e+00  =   0.000e+00
           C(4)      6.870e-03  +   0.000e+00  =   6.870e-03
             Ca      1.128e-02  +   0.000e+00  =   1.128e-02
             Cl      1.785e-02  +   0.000e+00  =   1.785e-02
          Fe(2)      4.000e-07  +   0.000e+00  =   4.000e-07
          Fe(3)      0.000e+00  +   0.000e+00  =   0.000e+00
           H(0)      1.238e-09  +   0.000e+00  =   1.238e-09
              K      2.540e-03  +   0.000e+00  =   2.540e-03
             Mg      4.540e-03  +   0.000e+00  =   4.540e-03
             Na      3.189e-02  +  -1.340e-03  =   3.055e-02
           O(0)      0.000e+00  +   0.000e+00  =   0.000e+00
          S(-2)      2.600e-04  +   0.000e+00  =   2.600e-04
           S(6)      1.986e-02  +   9.930e-04  =   2.085e-02
              X      0.000e+00  +   0.000e+00  =   0.000e+00
        13C(-4)           -2.3  +           0  =        -2.3
         13C(4)           -2.3  +           0  =        -2.3
        34S(-2)          -22.1  +           0  =       -22.1
         34S(6)           16.3  +           0  =        16.3

Isotopic composition of phases:
   13C Dolomite              3  +           0  =           3
    13C Calcite           -1.5  +           0  =        -1.5
  34S Anhydrite           13.5  +   -0.805734  =     12.6943
       13C CH2O            -25  +     4.58357  =    -20.4164
     34S Pyrite            -22  +           2  =         -20

Solution fractions:                   Minimum        Maximum
   Solution   1      1.000e+00      9.999e-01      1.000e+00
   Solution   2      1.000e+00      1.000e+00      1.000e+00

Phase mole transfers:                 Minimum        Maximum   Formula             (Approximate SI in solution 1, 2 at 336 K,   1 atm)
       Dolomite      1.114e-02      1.022e-02      1.189e-02   CaMg(CO3)2                 (  1.08,  0.53)
        Calcite     -2.405e-02     -2.598e-02     -2.125e-02   CaCO3                      (  0.40,  0.32)
      Anhydrite      2.299e-02      2.050e-02      2.384e-02   CaSO4                      ( -2.11, -0.01)
           CH2O      4.341e-03      2.606e-03      5.918e-03   CH2O                       (      ,      )
       Goethite      1.018e-03      5.478e-04      1.447e-03   FeOOH                      (      ,      )
         Pyrite     -1.019e-03     -1.446e-03     -5.495e-04   FeS2                       (      ,      )
           MgX2     -7.610e-03     -8.532e-03     -6.972e-03   MgX2                       (      ,      )
            NaX      1.522e-02      1.394e-02      1.706e-02   NaX                        (      ,      )
         Halite      1.531e-02      1.429e-02      1.633e-02   NaCl                       (-11.07, -5.07)
        Sylvite      2.520e-03      2.392e-03      2.648e-03   KCl                        ( -9.47, -4.59)

Redox mole transfers:    
          Fe(3)      1.018e-03
           H(0)     -1.238e-09
          S(-2)     -2.298e-03

Sum of residuals (epsilons in documentation):         2.393e+00
Sum of delta/uncertainty limit:                       4.698e+00
Maximum fractional error in element concentration:    5.000e-02

Model contains minimum number of phases.
===============================================================================


Solution 1: Recharge number 3

                         Input          Delta    Input+Delta
             pH      7.550e+00  +   0.000e+00  =   7.550e+00
     Alkalinity      4.014e-03  +   1.080e-04  =   4.122e-03
          C(-4)      0.000e+00  +   0.000e+00  =   0.000e+00
           C(4)      4.300e-03  +   3.938e-06  =   4.304e-03
             Ca      1.200e-03  +   0.000e+00  =   1.200e-03
             Cl      2.000e-05  +   0.000e+00  =   2.000e-05
          Fe(2)      1.000e-06  +   0.000e+00  =   1.000e-06
          Fe(3)      0.000e+00  +   0.000e+00  =   0.000e+00
           H(0)      0.000e+00  +   0.000e+00  =   0.000e+00
              K      2.000e-05  +   0.000e+00  =   2.000e-05
             Mg      1.010e-03  +   0.000e+00  =   1.010e-03
             Na      2.000e-05  +   0.000e+00  =   2.000e-05
           O(0)      0.000e+00  +   0.000e+00  =   0.000e+00
          S(-2)      0.000e+00  +   0.000e+00  =   0.000e+00
           S(6)      1.600e-04  +   0.000e+00  =   1.600e-04
              X      0.000e+00  +   0.000e+00  =   0.000e+00
        13C(-4)             -7  +           0  =          -7
         13C(4)             -7  +           0  =          -7
        34S(-2)            9.7  +           0  =         9.7
         34S(6)            9.7  +           0  =         9.7

Solution 2: Mysse

                         Input          Delta    Input+Delta
             pH      6.610e+00  +   0.000e+00  =   6.610e+00
     Alkalinity      5.175e-03  +   0.000e+00  =   5.175e-03
          C(-4)      0.000e+00  +   0.000e+00  =   0.000e+00
           C(4)      6.870e-03  +  -3.435e-04  =   6.526e-03
             Ca      1.128e-02  +  -5.640e-04  =   1.072e-02
             Cl      1.785e-02  +   0.000e+00  =   1.785e-02
          Fe(2)      4.000e-07  +   0.000e+00  =   4.000e-07
          Fe(3)      0.000e+00  +   0.000e+00  =   0.000e+00
           H(0)      1.238e-09  +   0.000e+00  =   1.238e-09
              K      2.540e-03  +   0.000e+00  =   2.540e-03
             Mg      4.540e-03  +   0.000e+00  =   4.540e-03
             Na      3.189e-02  +  -2.116e-04  =   3.168e-02
           O(0)      0.000e+00  +   0.000e+00  =   0.000e+00
          S(-2)      2.600e-04  +   0.000e+00  =   2.600e-04
           S(6)      1.986e-02  +   9.930e-04  =   2.085e-02
              X      0.000e+00  +   0.000e+00  =   0.000e+00
        13C(-4)           -2.3  +           0  =        -2.3
         13C(4)           -2.3  +           0  =        -2.3
        34S(-2)          -22.1  +           0  =       -22.1
         34S(6)           16.3  +           0  =        16.3

Isotopic composition of phases:
   13C Dolomite              3  +           2  =           5
    13C Calcite           -1.5  +          -1  =        -2.5
  34S Anhydrite           13.5  +   -0.231116  =     13.2689
       13C CH2O            -25  +           5  =         -20
     34S Pyrite            -22  +           2  =         -20

Solution fractions:                   Minimum        Maximum
   Solution   1      1.000e+00      1.000e+00      1.000e+00
   Solution   2      1.000e+00      1.000e+00      1.000e+00

Phase mole transfers:                 Minimum        Maximum   Formula             (Approximate SI in solution 1, 2 at 336 K,   1 atm)
       Dolomite      5.574e-03      4.995e-03      5.827e-03   CaMg(CO3)2                 (  1.08,  0.53)
        Calcite     -1.252e-02     -1.338e-02     -1.079e-02   CaCO3                      (  0.40,  0.32)
      Anhydrite      2.259e-02      2.050e-02      2.297e-02   CaSO4                      ( -2.11, -0.01)
           CH2O      3.596e-03      2.606e-03      4.290e-03   CH2O                       (      ,      )
       Goethite      8.197e-04      5.478e-04      1.013e-03   FeOOH                      (      ,      )
         Pyrite     -8.203e-04     -1.012e-03     -5.495e-04   FeS2                       (      ,      )
   Ca.75Mg.25X2     -8.174e-03     -8.532e-03     -6.972e-03   Ca.75Mg.25X2               (      ,      )
            NaX      1.635e-02      1.394e-02      1.706e-02   NaX                        (      ,      )
         Halite      1.531e-02      1.429e-02      1.633e-02   NaCl                       (-11.07, -5.07)
        Sylvite      2.520e-03      2.392e-03      2.648e-03   KCl                        ( -9.47, -4.59)

Redox mole transfers:    
          Fe(3)      8.197e-04
           H(0)     -1.238e-09
          S(-2)     -1.901e-03

Sum of residuals (epsilons in documentation):         3.714e+00
Sum of delta/uncertainty limit:                       7.805e+00
Maximum fractional error in element concentration:    5.000e-02

Model contains minimum number of phases.
===============================================================================


Summary of inverse modeling:

	Number of models found: 2
	Number of minimal models found: 2
	Number of infeasible sets of phases saved: 28
	Number of calls to cl1: 80
------------------
End of simulation.
------------------

------------------------------------
Reading input data for simulation 2.
------------------------------------

