   Input file: ../examples/ex3
  Output file: ex3.out
Database file: ../database/phreeqc.dat

------------------
Reading data base.
------------------

	SOLUTION_MASTER_SPECIES
	SOLUTION_SPECIES
	PHASES
	GAS_BINARY_PARAMETERS
	EXCHANGE_MASTER_SPECIES
	EXCHANGE_SPECIES
	SURFACE_MASTER_SPECIES
	SURFACE_SPECIES
	MEAN_GAMMAS
	RATES
	END
------------------------------------
Reading input data for simulation 1.
------------------------------------

	TITLE Example 3, part A.--Calcite equilibrium at log Pco2 = -2.0 and 25C.        
	SOLUTION 1  Pure water
	        pH      7.0
	        temp    25.0
	EQUILIBRIUM_PHASES
	        CO2(g)          -2.0    
	        Calcite         0.0
	SAVE solution 1
	END
-----
TITLE
-----

 Example 3, part A.--Calcite equilibrium at log Pco2 = -2.0 and 25C.        

-------------------------------------------
Beginning of initial solution calculations.
-------------------------------------------

Initial solution 1.	Pure water

-----------------------------Solution composition------------------------------

	Elements           Molality       Moles

	Pure water     

----------------------------Description of solution----------------------------

                                       pH  =   7.000    
                                       pe  =   4.000    
      Specific Conductance (µS/cm,  25°C)  = 0
                          Density (g/cm³)  =   0.99704
                               Volume (L)  =   1.00297
                        Viscosity (mPa s)  =   0.89002
                        Activity of water  =   1.000
                 Ionic strength (mol/kgw)  =   1.007e-07
                       Mass of water (kg)  =   1.000e+00
                 Total alkalinity (eq/kg)  =   1.217e-09
                         Temperature (°C)  =  25.00
                  Electrical balance (eq)  =  -1.217e-09
 Percent error, 100*(Cat-|An|)/(Cat+|An|)  =  -0.60
                               Iterations  =   0
                                  Total H  = 1.110124e+02
                                  Total O  = 5.550622e+01

----------------------------Distribution of species----------------------------

                                               Log       Log       Log    mole V
   Species          Molality    Activity  Molality  Activity     Gamma   cm³/mol

   OH-             1.013e-07   1.012e-07    -6.995    -6.995    -0.000     -4.14
   H+              1.001e-07   1.000e-07    -7.000    -7.000    -0.000      0.00
   H2O             5.551e+01   1.000e+00     1.744     0.000     0.000     18.07
H(0)          1.416e-25
   H2              7.079e-26   7.079e-26   -25.150   -25.150     0.000     14.99
O(0)          0.000e+00
   O2              0.000e+00   0.000e+00   -42.063   -42.063     0.000     30.40

------------------------------Saturation indices-------------------------------

  Phase               SI** log IAP   log K(298 K,   1 atm)

  H2(g)           -22.05    -25.15   -3.10  H2
  H2O(g)           -1.50      0.00    1.50  H2O
  O2(g)           -39.17    -42.06   -2.89  O2

**For a gas, SI = log10(fugacity). Fugacity = pressure * phi / 1 atm.
  For ideal gases, phi = 1.

-----------------------------------------
Beginning of batch-reaction calculations.
-----------------------------------------

Reaction step 1.

Using solution 1.	Pure water
Using pure phase assemblage 1.	

-------------------------------Phase assemblage--------------------------------

                                                      Moles in assemblage
Phase               SI  log IAP  log K(T, P)   Initial       Final       Delta

CO2(g)           -2.00    -3.47     -1.47    1.000e+01   9.998e+00  -1.986e-03
Calcite           0.00    -8.45     -8.45    1.000e+01   9.998e+00  -1.656e-03

-----------------------------Solution composition------------------------------

	Elements           Molality       Moles

	C                 3.642e-03   3.642e-03
	Ca                1.656e-03   1.656e-03

----------------------------Description of solution----------------------------

                                       pH  =   7.306      Charge balance
                                       pe  =  -1.584      Adjusted to redox equilibrium
      Specific Conductance (µS/cm,  25°C)  = 314
                          Density (g/cm³)  =   0.99726
                               Volume (L)  =   1.00300
                        Viscosity (mPa s)  =   0.89200
                        Activity of water  =   1.000
                 Ionic strength (mol/kgw)  =   4.954e-03
                       Mass of water (kg)  =   1.000e+00
                 Total alkalinity (eq/kg)  =   3.312e-03
                       Total CO2 (mol/kg)  =   3.642e-03
                         Temperature (°C)  =  25.00
                  Electrical balance (eq)  =  -1.237e-09
 Percent error, 100*(Cat-|An|)/(Cat+|An|)  =  -0.00
                               Iterations  =  16
                                  Total H  = 1.110124e+02
                                  Total O  = 5.551516e+01

----------------------------Distribution of species----------------------------

                                               Log       Log       Log    mole V
   Species          Molality    Activity  Molality  Activity     Gamma   cm³/mol

   OH-             2.209e-07   2.046e-07    -6.656    -6.689    -0.033     -4.07
   H+              5.297e-08   4.946e-08    -7.276    -7.306    -0.030      0.00
   H2O             5.551e+01   9.999e-01     1.744    -0.000     0.000     18.07
C(-4)         1.398e-25
   CH4             1.398e-25   1.400e-25   -24.854   -24.854     0.000     35.46
C(4)          3.642e-03
   HCO3-           3.292e-03   3.059e-03    -2.483    -2.514    -0.032     24.63
   CO2             3.400e-04   3.403e-04    -3.469    -3.468     0.000     34.79
   CaCO3           5.982e-06   5.989e-06    -5.223    -5.223     0.000    -14.60
   CO3-2           3.891e-06   2.900e-06    -5.410    -5.538    -0.128     -4.49
   (CO2)2          1.881e-09   1.882e-09    -8.726    -8.725     0.000     68.75
   CaHCO3+         3.545e-10   3.297e-10    -9.450    -9.482    -0.032      9.70
Ca            1.656e-03
   Ca+2            1.650e-03   1.229e-03    -2.782    -2.910    -0.128    -18.02
   CaCO3           5.982e-06   5.989e-06    -5.223    -5.223     0.000    -14.60
   CaOH+           4.447e-09   4.124e-09    -8.352    -8.385    -0.033     (0)  
   CaHCO3+         3.545e-10   3.297e-10    -9.450    -9.482    -0.032      9.70
H(0)          5.087e-15
   H2              2.544e-15   2.547e-15   -14.595   -14.594     0.001     14.99
O(0)          0.000e+00
   O2              0.000e+00   0.000e+00   -63.175   -63.175     0.000     30.40

------------------------------Saturation indices-------------------------------

  Phase               SI** log IAP   log K(298 K,   1 atm)

  Aragonite        -0.11     -8.45   -8.34  CaCO3
  Calcite           0.00     -8.45   -8.45  CaCO3
  CH4(g)          -22.05    -24.85   -2.80  CH4
  CO2(g)           -2.00     -3.47   -1.47  CO2	 Pressure   0.0 atm, phi 1.000
  H2(g)           -11.49    -14.59   -3.10  H2
  H2O(g)           -1.50     -0.00    1.50  H2O
  O2(g)           -60.28    -63.17   -2.89  O2

**For a gas, SI = log10(fugacity). Fugacity = pressure * phi / 1 atm.
  For ideal gases, phi = 1.

------------------
End of simulation.
------------------

------------------------------------
Reading input data for simulation 2.
------------------------------------

	TITLE Example 3, part B.--Definition of seawater.
	SOLUTION 2  Seawater
	        units   ppm
	        pH      8.22
	        pe      8.451
	        density 1.023
	        temp    25.0
	        Ca              412.3
	        Mg              1291.8
	        Na              10768.0
	        K               399.1
	        Si              4.28
	        Cl              19353.0
	        Alkalinity      141.682 as HCO3
	        S(6)            2712.0
	END
-----
TITLE
-----

 Example 3, part B.--Definition of seawater.

-------------------------------------------
Beginning of initial solution calculations.
-------------------------------------------

Initial solution 2.	Seawater

-----------------------------Solution composition------------------------------

	Elements           Molality       Moles

	Alkalinity        2.406e-03   2.406e-03
	Ca                1.066e-02   1.066e-02
	Cl                5.657e-01   5.657e-01
	K                 1.058e-02   1.058e-02
	Mg                5.507e-02   5.507e-02
	Na                4.854e-01   4.854e-01
	S(6)              2.926e-02   2.926e-02
	Si                7.382e-05   7.382e-05

----------------------------Description of solution----------------------------

                                       pH  =   8.220    
                                       pe  =   8.451    
      Specific Conductance (µS/cm,  25°C)  = 52918
                          Density (g/cm³)  =   1.02326
                               Volume (L)  =   1.01279
                        Viscosity (mPa s)  =   0.95670
                        Activity of water  =   0.981
                 Ionic strength (mol/kgw)  =   6.737e-01
                       Mass of water (kg)  =   1.000e+00
                    Total carbon (mol/kg)  =   2.233e-03
                       Total CO2 (mol/kg)  =   2.233e-03
                         Temperature (°C)  =  25.00
                  Electrical balance (eq)  =   7.967e-04
 Percent error, 100*(Cat-|An|)/(Cat+|An|)  =   0.07
                               Iterations  =   8
                                  Total H  = 1.110148e+02
                                  Total O  = 5.563024e+01

----------------------------Distribution of species----------------------------

                                               Log       Log       Log    mole V
   Species          Molality    Activity  Molality  Activity     Gamma   cm³/mol

   OH-             2.705e-06   1.647e-06    -5.568    -5.783    -0.215     -2.63
   H+              7.983e-09   6.026e-09    -8.098    -8.220    -0.122      0.00
   H2O             5.551e+01   9.806e-01     1.744    -0.009     0.000     18.07
C(4)          2.233e-03
   HCO3-           1.613e-03   1.102e-03    -2.792    -2.958    -0.165     28.01
   MgHCO3+         2.865e-04   1.802e-04    -3.543    -3.744    -0.201      5.82
   NaHCO3          1.472e-04   1.861e-04    -3.832    -3.730     0.102     17.66
   MgCO3           9.795e-05   1.144e-04    -4.009    -3.942     0.067    -17.09
   CO3-2           4.124e-05   8.580e-06    -4.385    -5.067    -0.682     -0.67
   CaCO3           3.057e-05   3.569e-05    -4.515    -4.447     0.067    -14.60
   CO2             1.375e-05   1.523e-05    -4.862    -4.817     0.044     34.79
   KHCO3           2.716e-06   3.171e-06    -5.566    -5.499     0.067     21.42
   CaHCO3+         3.459e-10   2.394e-10    -9.461    -9.621    -0.160      9.96
   (CO2)2          3.404e-12   3.771e-12   -11.468   -11.424     0.044     68.75
Ca            1.066e-02
   Ca+2            9.903e-03   2.476e-03    -2.004    -2.606    -0.602    -16.70
   CaSO4           7.271e-04   7.790e-04    -3.138    -3.108     0.030      7.22
   CaCO3           3.057e-05   3.569e-05    -4.515    -4.447     0.067    -14.60
   CaOH+           8.956e-08   6.688e-08    -7.048    -7.175    -0.127     (0)  
   CaHCO3+         3.459e-10   2.394e-10    -9.461    -9.621    -0.160      9.96
   CaHSO4+         5.268e-11   3.934e-11   -10.278   -10.405    -0.127     (0)  
Cl            5.657e-01
   Cl-             5.657e-01   3.569e-01    -0.247    -0.448    -0.200     18.79
   HCl             3.828e-10   7.407e-10    -9.417    -9.130     0.287     20.36
H(0)          5.474e-37
   H2              2.737e-37   3.221e-37   -36.563   -36.492     0.071     14.99
K             1.058e-02
   K+              1.033e-02   6.440e-03    -1.986    -2.191    -0.205      9.66
   KSO4-           2.437e-04   2.210e-04    -3.613    -3.656    -0.042     35.14
   KHCO3           2.716e-06   3.171e-06    -5.566    -5.499     0.067     21.42
Mg            5.507e-02
   Mg+2            4.840e-02   1.397e-02    -1.315    -1.855    -0.540    -20.41
   MgSO4           6.049e-03   8.250e-03    -2.218    -2.084     0.135     -0.40
   MgHCO3+         2.865e-04   1.802e-04    -3.543    -3.744    -0.201      5.82
   Mg(SO4)2-2      2.166e-04   6.128e-05    -3.664    -4.213    -0.548     48.71
   MgCO3           9.795e-05   1.144e-04    -4.009    -3.942     0.067    -17.09
   MgOH+           1.172e-05   8.255e-06    -4.931    -5.083    -0.152     (0)  
Na            4.854e-01
   Na+             4.759e-01   3.415e-01    -0.323    -0.467    -0.144     -0.50
   NaSO4-          9.407e-03   6.766e-03    -2.027    -2.170    -0.143     21.71
   NaHCO3          1.472e-04   1.861e-04    -3.832    -3.730     0.102     17.66
   Na2SO4          9.820e-07   1.127e-06    -6.008    -5.948     0.060     47.96
O(0)          6.888e-20
   O2              3.444e-20   4.022e-20   -19.463   -19.396     0.067     30.40
S(6)          2.926e-02
   SO4-2           1.240e-02   2.255e-03    -1.907    -2.647    -0.740     17.12
   NaSO4-          9.407e-03   6.766e-03    -2.027    -2.170    -0.143     21.71
   MgSO4           6.049e-03   8.250e-03    -2.218    -2.084     0.135     -0.40
   CaSO4           7.271e-04   7.790e-04    -3.138    -3.108     0.030      7.22
   KSO4-           2.437e-04   2.210e-04    -3.613    -3.656    -0.042     35.14
   Mg(SO4)2-2      2.166e-04   6.128e-05    -3.664    -4.213    -0.548     48.71
   Na2SO4          9.820e-07   1.127e-06    -6.008    -5.948     0.060     47.96
   HSO4-           1.769e-09   1.321e-09    -8.752    -8.879    -0.127     40.96
   CaHSO4+         5.268e-11   3.934e-11   -10.278   -10.405    -0.127     (0)  
Si            7.382e-05
   H4SiO4          7.061e-05   8.246e-05    -4.151    -4.084     0.067     52.08
   H3SiO4-         3.209e-06   2.018e-06    -5.494    -5.695    -0.201     28.72
   H2SiO4-2        1.095e-10   2.278e-11    -9.961   -10.642    -0.682     (0)  

------------------------------Saturation indices-------------------------------

  Phase               SI** log IAP   log K(298 K,   1 atm)

  Anhydrite        -0.94     -5.25   -4.31  CaSO4
  Aragonite         0.66     -7.67   -8.34  CaCO3
  Arcanite         -5.15     -7.03   -1.88  K2SO4
  Calcite           0.78     -7.67   -8.45  CaCO3
  Chalcedony       -0.52     -4.07   -3.55  SiO2
  Chrysotile        3.38     35.58   32.20  Mg3Si2O5(OH)4
  CO2(g)           -3.35     -4.82   -1.47  CO2
  Dolomite          2.49    -14.59  -17.08  CaMg(CO3)2
  Epsomite         -2.82     -4.56   -1.74  MgSO4:7H2O
  Gypsum           -0.72     -5.27   -4.55  CaSO4:2H2O
  H2(g)           -33.39    -36.49   -3.10  H2
  H2O(g)           -1.51     -0.01    1.50  H2O
  Halite           -2.48     -0.91    1.57  NaCl
  Hexahydrite      -2.99     -4.55   -1.57  MgSO4:6H2O
  Kieserite        -3.35     -4.51   -1.16  MgSO4:H2O
  Mirabilite       -2.96     -3.67   -0.71  Na2SO4:10H2O
  O2(g)           -16.50    -19.40   -2.89  O2
  Quartz           -0.09     -4.07   -3.98  SiO2
  Sepiolite         1.16     16.92   15.76  Mg2Si3O7.5OH:3H2O
  Sepiolite(d)     -1.74     16.92   18.66  Mg2Si3O7.5OH:3H2O
  SiO2(a)          -1.35     -4.07   -2.71  SiO2
  Sylvite          -3.54     -2.64    0.90  KCl
  Talc              6.06     27.45   21.40  Mg3Si4O10(OH)2
  Thenardite       -4.23     -3.58    0.65  Na2SO4

**For a gas, SI = log10(fugacity). Fugacity = pressure * phi / 1 atm.
  For ideal gases, phi = 1.

------------------
End of simulation.
------------------

------------------------------------
Reading input data for simulation 3.
------------------------------------

	TITLE Example 3, part C.--Mix 70% groundwater, 30% seawater.
	MIX 1
	        1      0.7
	        2      0.3
	SAVE solution   3
	END
-----
TITLE
-----

 Example 3, part C.--Mix 70% groundwater, 30% seawater.

-----------------------------------------
Beginning of batch-reaction calculations.
-----------------------------------------

Reaction step 1.

Using mix 1.	

Mixture 1.	

	  7.000e-01 Solution 1	Solution after simulation 1.                           
	  3.000e-01 Solution 2	Seawater                                               

-----------------------------Solution composition------------------------------

	Elements           Molality       Moles

	C                 3.219e-03   3.219e-03
	Ca                4.358e-03   4.357e-03
	Cl                1.697e-01   1.697e-01
	K                 3.173e-03   3.173e-03
	Mg                1.652e-02   1.652e-02
	Na                1.456e-01   1.456e-01
	S                 8.777e-03   8.777e-03
	Si                2.215e-05   2.215e-05

----------------------------Description of solution----------------------------

                                       pH  =   7.347      Charge balance
                                       pe  =  10.654      Adjusted to redox equilibrium
      Specific Conductance (µS/cm,  25°C)  = 18347
                          Density (g/cm³)  =   1.00526
                               Volume (L)  =   1.00580
                        Viscosity (mPa s)  =   0.91116
                        Activity of water  =   0.994
                 Ionic strength (mol/kgw)  =   2.081e-01
                       Mass of water (kg)  =   1.000e+00
                 Total alkalinity (eq/kg)  =   3.040e-03
                       Total CO2 (mol/kg)  =   3.219e-03
                         Temperature (°C)  =  25.00
                  Electrical balance (eq)  =   2.390e-04
 Percent error, 100*(Cat-|An|)/(Cat+|An|)  =   0.06
                               Iterations  =  20
                                  Total H  = 1.110131e+02
                                  Total O  = 5.554968e+01

----------------------------Distribution of species----------------------------

                                               Log       Log       Log    mole V
   Species          Molality    Activity  Molality  Activity     Gamma   cm³/mol

   OH-             3.180e-07   2.238e-07    -6.498    -6.650    -0.153     -3.48
   H+              5.648e-08   4.496e-08    -7.248    -7.347    -0.099      0.00
   H2O             5.551e+01   9.941e-01     1.744    -0.003     0.000     18.07
C(-4)         0.000e+00
   CH4             0.000e+00   0.000e+00  -123.315  -123.294     0.021     35.46
C(4)          3.219e-03
   HCO3-           2.729e-03   2.037e-03    -2.564    -2.691    -0.127     25.98
   CO2             2.007e-04   2.072e-04    -3.697    -3.684     0.014     34.79
   MgHCO3+         1.658e-04   1.186e-04    -3.780    -3.926    -0.145      5.72
   NaHCO3          1.004e-04   1.080e-04    -3.998    -3.967     0.031     17.66
   MgCO3           9.620e-06   1.009e-05    -5.017    -4.996     0.021    -17.09
   CO3-2           6.946e-06   2.125e-06    -5.158    -5.673    -0.514     -2.56
   CaCO3           4.436e-06   4.654e-06    -5.353    -5.332     0.021    -14.60
   KHCO3           1.914e-06   2.008e-06    -5.718    -5.697     0.021     21.42
   (CO2)2          6.762e-10   6.979e-10    -9.170    -9.156     0.014     68.75
   CaHCO3+         3.088e-10   2.329e-10    -9.510    -9.633    -0.123      9.88
Ca            4.358e-03
   Ca+2            4.100e-03   1.304e-03    -2.387    -2.885    -0.498    -17.20
   CaSO4           2.529e-04   2.583e-04    -3.597    -3.588     0.009      7.22
   CaCO3           4.436e-06   4.654e-06    -5.353    -5.332     0.021    -14.60
   CaOH+           6.422e-09   4.783e-09    -8.192    -8.320    -0.128     (0)  
   CaHCO3+         3.088e-10   2.329e-10    -9.510    -9.633    -0.123      9.88
   CaHSO4+         1.307e-10   9.734e-11    -9.884   -10.012    -0.128     (0)  
Cl            1.697e-01
   Cl-             1.697e-01   1.209e-01    -0.770    -0.917    -0.147     18.47
   HCl             1.528e-09   1.873e-09    -8.816    -8.727     0.089     20.36
H(0)          1.342e-39
   H2              6.708e-40   7.054e-40   -39.173   -39.152     0.022     14.99
K             3.173e-03
   K+              3.113e-03   2.206e-03    -2.507    -2.656    -0.149      9.35
   KSO4-           5.855e-05   4.769e-05    -4.232    -4.322    -0.089     28.77
   KHCO3           1.914e-06   2.008e-06    -5.718    -5.697     0.021     21.42
Mg            1.652e-02
   Mg+2            1.464e-02   4.977e-03    -1.835    -2.303    -0.469    -20.91
   MgSO4           1.682e-03   1.851e-03    -2.774    -2.733     0.042     -0.40
   MgHCO3+         1.658e-04   1.186e-04    -3.780    -3.926    -0.145      5.72
   Mg(SO4)2-2      2.410e-05   8.663e-06    -4.618    -5.062    -0.444     45.19
   MgCO3           9.620e-06   1.009e-05    -5.017    -4.996     0.021    -17.09
   MgOH+           5.241e-07   3.995e-07    -6.281    -6.398    -0.118     (0)  
Na            1.456e-01
   Na+             1.437e-01   1.072e-01    -0.842    -0.970    -0.127     -0.92
   NaSO4-          1.806e-03   1.338e-03    -2.743    -2.874    -0.130     19.24
   NaHCO3          1.004e-04   1.080e-04    -3.998    -3.967     0.031     17.66
   Na2SO4          6.703e-08   6.993e-08    -7.174    -7.155     0.018     47.96
O(0)          1.643e-14
   O2              8.216e-15   8.619e-15   -14.085   -14.065     0.021     30.40
S(-2)         0.000e+00
   HS-             0.000e+00   0.000e+00  -120.388  -120.541    -0.153     21.00
   H2S             0.000e+00   0.000e+00  -120.967  -120.946     0.021     36.27
   S-2             0.000e+00   0.000e+00  -125.580  -126.112    -0.532     (0)  
   (H2S)2          0.000e+00   0.000e+00  -243.191  -243.170     0.021     30.09
S(6)          8.777e-03
   SO4-2           4.930e-03   1.421e-03    -2.307    -2.848    -0.540     15.57
   NaSO4-          1.806e-03   1.338e-03    -2.743    -2.874    -0.130     19.24
   MgSO4           1.682e-03   1.851e-03    -2.774    -2.733     0.042     -0.40
   CaSO4           2.529e-04   2.583e-04    -3.597    -3.588     0.009      7.22
   KSO4-           5.855e-05   4.769e-05    -4.232    -4.322    -0.089     28.77
   Mg(SO4)2-2      2.410e-05   8.663e-06    -4.618    -5.062    -0.444     45.19
   Na2SO4          6.703e-08   6.993e-08    -7.174    -7.155     0.018     47.96
   HSO4-           8.338e-09   6.211e-09    -8.079    -8.207    -0.128     40.66
   CaHSO4+         1.307e-10   9.734e-11    -9.884   -10.012    -0.128     (0)  
Si            2.215e-05
   H4SiO4          2.204e-05   2.312e-05    -4.657    -4.636     0.021     52.08
   H3SiO4-         1.060e-07   7.583e-08    -6.975    -7.120    -0.145     28.37
   H2SiO4-2        3.750e-13   1.147e-13   -12.426   -12.940    -0.514     (0)  

------------------------------Saturation indices-------------------------------

  Phase               SI** log IAP   log K(298 K,   1 atm)

  Anhydrite        -1.42     -5.73   -4.31  CaSO4
  Aragonite        -0.22     -8.56   -8.34  CaCO3
  Arcanite         -6.28     -8.16   -1.88  K2SO4
  Calcite          -0.11     -8.56   -8.45  CaCO3
  CH4(g)         -120.49   -123.29   -2.80  CH4
  Chalcedony       -1.08     -4.63   -3.55  SiO2
  Chrysotile       -4.30     27.90   32.20  Mg3Si2O5(OH)4
  CO2(g)           -2.22     -3.68   -1.47  CO2
  Dolomite          0.55    -16.53  -17.08  CaMg(CO3)2
  Epsomite         -3.43     -5.17   -1.74  MgSO4:7H2O
  Gypsum           -1.19     -5.74   -4.55  CaSO4:2H2O
  H2(g)           -36.05    -39.15   -3.10  H2
  H2O(g)           -1.51     -0.00    1.50  H2O
  H2S(g)         -119.95   -127.89   -7.94  H2S
  Halite           -3.46     -1.89    1.57  NaCl
  Hexahydrite      -3.60     -5.17   -1.57  MgSO4:6H2O
  Kieserite        -3.99     -5.15   -1.16  MgSO4:H2O
  Mirabilite       -4.11     -4.81   -0.71  Na2SO4:10H2O
  O2(g)           -11.17    -14.06   -2.89  O2
  Quartz           -0.65     -4.63   -3.98  SiO2
  Sepiolite        -4.88     10.88   15.76  Mg2Si3O7.5OH:3H2O
  Sepiolite(d)     -7.78     10.88   18.66  Mg2Si3O7.5OH:3H2O
  SiO2(a)          -1.92     -4.63   -2.71  SiO2
  Sulfur          -89.83    -84.94    4.88  S
  Sylvite          -4.47     -3.57    0.90  KCl
  Talc             -2.76     18.64   21.40  Mg3Si4O10(OH)2
  Thenardite       -5.44     -4.79    0.65  Na2SO4

**For a gas, SI = log10(fugacity). Fugacity = pressure * phi / 1 atm.
  For ideal gases, phi = 1.

------------------
End of simulation.
------------------

------------------------------------
Reading input data for simulation 4.
------------------------------------

	TITLE Example 3, part D.--Equilibrate mixture with calcite and dolomite.
	EQUILIBRIUM_PHASES 1
	        Calcite         0.0
	        Dolomite        0.0
	USE solution 3
	END
-----
TITLE
-----

 Example 3, part D.--Equilibrate mixture with calcite and dolomite.

-----------------------------------------
Beginning of batch-reaction calculations.
-----------------------------------------

Reaction step 1.

Using solution 3.	Solution after simulation 3.
Using pure phase assemblage 1.	

-------------------------------Phase assemblage--------------------------------

                                                      Moles in assemblage
Phase               SI  log IAP  log K(T, P)   Initial       Final       Delta

Calcite           0.00    -8.45     -8.45    1.000e+01   9.983e+00  -1.663e-02
Dolomite          0.00   -17.08    -17.08    1.000e+01   1.001e+01   8.407e-03

-----------------------------Solution composition------------------------------

	Elements           Molality       Moles

	C                 3.037e-03   3.037e-03
	Ca                1.258e-02   1.258e-02
	Cl                1.697e-01   1.697e-01
	K                 3.173e-03   3.173e-03
	Mg                8.113e-03   8.112e-03
	Na                1.456e-01   1.456e-01
	S                 8.777e-03   8.777e-03
	Si                2.215e-05   2.215e-05

----------------------------Description of solution----------------------------

                                       pH  =   7.038      Charge balance
                                       pe  =  10.932      Adjusted to redox equilibrium
      Specific Conductance (µS/cm,  25°C)  = 18544
                          Density (g/cm³)  =   1.00533
                               Volume (L)  =   1.00583
                        Viscosity (mPa s)  =   0.91018
                        Activity of water  =   0.994
                 Ionic strength (mol/kgw)  =   2.088e-01
                       Mass of water (kg)  =   1.000e+00
                 Total alkalinity (eq/kg)  =   2.676e-03
                       Total CO2 (mol/kg)  =   3.037e-03
                         Temperature (°C)  =  25.00
                  Electrical balance (eq)  =   2.390e-04
 Percent error, 100*(Cat-|An|)/(Cat+|An|)  =   0.06
                               Iterations  =   5
                                  Total H  = 1.110131e+02
                                  Total O  = 5.554913e+01

----------------------------Distribution of species----------------------------

                                               Log       Log       Log    mole V
   Species          Molality    Activity  Molality  Activity     Gamma   cm³/mol

   OH-             1.562e-07   1.099e-07    -6.806    -6.959    -0.153     -3.48
   H+              1.151e-07   9.159e-08    -6.939    -7.038    -0.099      0.00
   H2O             5.551e+01   9.941e-01     1.744    -0.003     0.000     18.07
C(-4)         0.000e+00
   CH4             0.000e+00   0.000e+00  -122.800  -122.779     0.021     35.46
C(4)          3.037e-03
   HCO3-           2.486e-03   1.856e-03    -2.604    -2.732    -0.127     25.99
   CO2             3.724e-04   3.844e-04    -3.429    -3.415     0.014     34.79
   NaHCO3          9.137e-05   9.825e-05    -4.039    -4.008     0.032     17.66
   MgHCO3+         7.387e-05   5.283e-05    -4.132    -4.277    -0.146      5.72
   CaCO3           5.708e-06   5.989e-06    -5.244    -5.223     0.021    -14.60
   CO3-2           3.109e-06   9.501e-07    -5.507    -6.022    -0.515     -2.55
   MgCO3           2.102e-06   2.206e-06    -5.677    -5.656     0.021    -17.09
   KHCO3           1.741e-06   1.827e-06    -5.759    -5.738     0.021     21.42
   (CO2)2          2.327e-09   2.402e-09    -8.633    -8.619     0.014     68.75
   CaHCO3+         8.096e-10   6.105e-10    -9.092    -9.214    -0.123      9.88
Ca            1.258e-02
   Ca+2            1.181e-02   3.752e-03    -1.928    -2.426    -0.498    -17.20
   CaSO4           7.628e-04   7.793e-04    -3.118    -3.108     0.009      7.22
   CaCO3           5.708e-06   5.989e-06    -5.244    -5.223     0.021    -14.60
   CaOH+           9.076e-09   6.759e-09    -8.042    -8.170    -0.128     (0)  
   CaHCO3+         8.096e-10   6.105e-10    -9.092    -9.214    -0.123      9.88
   CaHSO4+         8.033e-10   5.982e-10    -9.095    -9.223    -0.128     (0)  
Cl            1.697e-01
   Cl-             1.697e-01   1.209e-01    -0.770    -0.918    -0.147     18.47
   HCl             3.109e-09   3.815e-09    -8.507    -8.419     0.089     20.36
H(0)          1.546e-39
   H2              7.732e-40   8.133e-40   -39.112   -39.090     0.022     14.99
K             3.173e-03
   K+              3.110e-03   2.204e-03    -2.507    -2.657    -0.150      9.35
   KSO4-           6.129e-05   4.993e-05    -4.213    -4.302    -0.089     28.78
   KHCO3           1.741e-06   1.827e-06    -5.759    -5.738     0.021     21.42
Mg            8.113e-03
   Mg+2            7.162e-03   2.433e-03    -2.145    -2.614    -0.469    -20.91
   MgSO4           8.616e-04   9.485e-04    -3.065    -3.023     0.042     -0.40
   MgHCO3+         7.387e-05   5.283e-05    -4.132    -4.277    -0.146      5.72
   Mg(SO4)2-2      1.295e-05   4.652e-06    -4.888    -5.332    -0.445     45.20
   MgCO3           2.102e-06   2.206e-06    -5.677    -5.656     0.021    -17.09
   MgOH+           1.258e-07   9.587e-08    -6.900    -7.018    -0.118     (0)  
Na            1.456e-01
   Na+             1.436e-01   1.071e-01    -0.843    -0.970    -0.127     -0.92
   NaSO4-          1.892e-03   1.401e-03    -2.723    -2.854    -0.130     19.24
   NaHCO3          9.137e-05   9.825e-05    -4.039    -4.008     0.032     17.66
   Na2SO4          7.013e-08   7.318e-08    -7.154    -7.136     0.018     47.96
O(0)          1.236e-14
   O2              6.179e-15   6.484e-15   -14.209   -14.188     0.021     30.40
S(-2)         0.000e+00
   HS-             0.000e+00   0.000e+00  -119.811  -119.964    -0.153     21.00
   H2S             0.000e+00   0.000e+00  -120.081  -120.060     0.021     36.27
   S-2             0.000e+00   0.000e+00  -125.311  -125.844    -0.533     (0)  
   (H2S)2          0.000e+00   0.000e+00  -241.420  -241.399     0.021     30.09
S(6)          8.777e-03
   SO4-2           5.174e-03   1.489e-03    -2.286    -2.827    -0.541     15.57
   NaSO4-          1.892e-03   1.401e-03    -2.723    -2.854    -0.130     19.24
   MgSO4           8.616e-04   9.485e-04    -3.065    -3.023     0.042     -0.40
   CaSO4           7.628e-04   7.793e-04    -3.118    -3.108     0.009      7.22
   KSO4-           6.129e-05   4.993e-05    -4.213    -4.302    -0.089     28.78
   Mg(SO4)2-2      1.295e-05   4.652e-06    -4.888    -5.332    -0.445     45.20
   Na2SO4          7.013e-08   7.318e-08    -7.154    -7.136     0.018     47.96
   HSO4-           1.781e-08   1.326e-08    -7.749    -7.877    -0.128     40.66
   CaHSO4+         8.033e-10   5.982e-10    -9.095    -9.223    -0.128     (0)  
Si            2.215e-05
   H4SiO4          2.210e-05   2.318e-05    -4.656    -4.635     0.021     52.08
   H3SiO4-         5.219e-08   3.732e-08    -7.282    -7.428    -0.146     28.38
   H2SiO4-2        9.071e-14   2.772e-14   -13.042   -13.557    -0.515     (0)  

------------------------------Saturation indices-------------------------------

  Phase               SI** log IAP   log K(298 K,   1 atm)

  Anhydrite        -0.94     -5.25   -4.31  CaSO4
  Aragonite        -0.11     -8.45   -8.34  CaCO3
  Arcanite         -6.26     -8.14   -1.88  K2SO4
  Calcite           0.00     -8.45   -8.45  CaCO3
  CH4(g)         -119.98   -122.78   -2.80  CH4
  Chalcedony       -1.08     -4.63   -3.55  SiO2
  Chrysotile       -7.09     25.11   32.20  Mg3Si2O5(OH)4
  CO2(g)           -1.95     -3.42   -1.47  CO2
  Dolomite          0.00    -17.08  -17.08  CaMg(CO3)2
  Epsomite         -3.72     -5.46   -1.74  MgSO4:7H2O
  Gypsum           -0.71     -5.26   -4.55  CaSO4:2H2O
  H2(g)           -35.99    -39.09   -3.10  H2
  H2O(g)           -1.51     -0.00    1.50  H2O
  H2S(g)         -119.07   -127.00   -7.94  H2S
  Halite           -3.46     -1.89    1.57  NaCl
  Hexahydrite      -3.89     -5.46   -1.57  MgSO4:6H2O
  Kieserite        -4.28     -5.44   -1.16  MgSO4:H2O
  Mirabilite       -4.09     -4.79   -0.71  Na2SO4:10H2O
  O2(g)           -11.30    -14.19   -2.89  O2
  Quartz           -0.65     -4.63   -3.98  SiO2
  Sepiolite        -6.74      9.02   15.76  Mg2Si3O7.5OH:3H2O
  Sepiolite(d)     -9.64      9.02   18.66  Mg2Si3O7.5OH:3H2O
  SiO2(a)          -1.92     -4.63   -2.71  SiO2
  Sulfur          -89.00    -84.12    4.88  S
  Sylvite          -4.47     -3.57    0.90  KCl
  Talc             -5.54     15.86   21.40  Mg3Si4O10(OH)2
  Thenardite       -5.42     -4.77    0.65  Na2SO4

**For a gas, SI = log10(fugacity). Fugacity = pressure * phi / 1 atm.
  For ideal gases, phi = 1.

------------------
End of simulation.
------------------

------------------------------------
Reading input data for simulation 5.
------------------------------------

	TITLE Example 3, part E.--Equilibrate mixture with calcite only.
	EQUILIBRIUM_PHASES 2
	        Calcite         0.0
	USE solution 3
	END
-----
TITLE
-----

 Example 3, part E.--Equilibrate mixture with calcite only.

-----------------------------------------
Beginning of batch-reaction calculations.
-----------------------------------------

Reaction step 1.

Using solution 3.	Solution after simulation 3.
Using pure phase assemblage 2.	

-------------------------------Phase assemblage--------------------------------

                                                      Moles in assemblage
Phase               SI  log IAP  log K(T, P)   Initial       Final       Delta

Calcite           0.00    -8.45     -8.45    1.000e+01   1.000e+01  -4.178e-05

-----------------------------Solution composition------------------------------

	Elements           Molality       Moles

	C                 3.261e-03   3.261e-03
	Ca                4.399e-03   4.399e-03
	Cl                1.697e-01   1.697e-01
	K                 3.173e-03   3.173e-03
	Mg                1.652e-02   1.652e-02
	Na                1.456e-01   1.456e-01
	S                 8.777e-03   8.777e-03
	Si                2.215e-05   2.215e-05

----------------------------Description of solution----------------------------

                                       pH  =   7.442      Charge balance
                                       pe  =  10.527      Adjusted to redox equilibrium
      Specific Conductance (µS/cm,  25°C)  = 18352
                          Density (g/cm³)  =   1.00526
                               Volume (L)  =   1.00579
                        Viscosity (mPa s)  =   0.91118
                        Activity of water  =   0.994
                 Ionic strength (mol/kgw)  =   2.082e-01
                       Mass of water (kg)  =   1.000e+00
                 Total alkalinity (eq/kg)  =   3.124e-03
                       Total CO2 (mol/kg)  =   3.261e-03
                         Temperature (°C)  =  25.00
                  Electrical balance (eq)  =   2.390e-04
 Percent error, 100*(Cat-|An|)/(Cat+|An|)  =   0.06
                               Iterations  =   3
                                  Total H  = 1.110131e+02
                                  Total O  = 5.554981e+01

----------------------------Distribution of species----------------------------

                                               Log       Log       Log    mole V
   Species          Molality    Activity  Molality  Activity     Gamma   cm³/mol

   OH-             3.961e-07   2.787e-07    -6.402    -6.555    -0.153     -3.48
   H+              4.535e-08   3.610e-08    -7.343    -7.442    -0.099      0.00
   H2O             5.551e+01   9.941e-01     1.744    -0.003     0.000     18.07
C(-4)         0.000e+00
   CH4             0.000e+00   0.000e+00  -123.153  -123.132     0.021     35.46
C(4)          3.261e-03
   HCO3-           2.795e-03   2.086e-03    -2.554    -2.681    -0.127     25.98
   MgHCO3+         1.697e-04   1.214e-04    -3.770    -3.916    -0.145      5.72
   CO2             1.650e-04   1.703e-04    -3.782    -3.769     0.014     34.79
   NaHCO3          1.028e-04   1.105e-04    -3.988    -3.957     0.031     17.66
   MgCO3           1.226e-05   1.286e-05    -4.911    -4.891     0.021    -17.09
   CO3-2           8.859e-06   2.710e-06    -5.053    -5.567    -0.514     -2.56
   CaCO3           5.709e-06   5.989e-06    -5.243    -5.223     0.021    -14.60
   KHCO3           1.960e-06   2.056e-06    -5.708    -5.687     0.021     21.42
   (CO2)2          4.570e-10   4.717e-10    -9.340    -9.326     0.014     68.75
   CaHCO3+         3.190e-10   2.406e-10    -9.496    -9.619    -0.123      9.88
Ca            4.399e-03
   Ca+2            4.139e-03   1.316e-03    -2.383    -2.881    -0.498    -17.20
   CaSO4           2.551e-04   2.606e-04    -3.593    -3.584     0.009      7.22
   CaCO3           5.709e-06   5.989e-06    -5.243    -5.223     0.021    -14.60
   CaOH+           8.071e-09   6.012e-09    -8.093    -8.221    -0.128     (0)  
   CaHCO3+         3.190e-10   2.406e-10    -9.496    -9.619    -0.123      9.88
   CaHSO4+         1.059e-10   7.885e-11    -9.975   -10.103    -0.128     (0)  
Cl            1.697e-01
   Cl-             1.697e-01   1.209e-01    -0.770    -0.917    -0.147     18.47
   HCl             1.227e-09   1.504e-09    -8.911    -8.823     0.089     20.36
H(0)          1.547e-39
   H2              7.734e-40   8.133e-40   -39.112   -39.090     0.022     14.99
K             3.173e-03
   K+              3.113e-03   2.206e-03    -2.507    -2.656    -0.150      9.35
   KSO4-           5.853e-05   4.768e-05    -4.233    -4.322    -0.089     28.77
   KHCO3           1.960e-06   2.056e-06    -5.708    -5.687     0.021     21.42
Mg            1.652e-02
   Mg+2            1.463e-02   4.974e-03    -1.835    -2.303    -0.469    -20.91
   MgSO4           1.681e-03   1.850e-03    -2.774    -2.733     0.042     -0.40
   MgHCO3+         1.697e-04   1.214e-04    -3.770    -3.916    -0.145      5.72
   Mg(SO4)2-2      2.408e-05   8.654e-06    -4.618    -5.063    -0.444     45.19
   MgCO3           1.226e-05   1.286e-05    -4.911    -4.891     0.021    -17.09
   MgOH+           6.524e-07   4.973e-07    -6.186    -6.303    -0.118     (0)  
Na            1.456e-01
   Na+             1.437e-01   1.072e-01    -0.842    -0.970    -0.127     -0.92
   NaSO4-          1.806e-03   1.337e-03    -2.743    -2.874    -0.130     19.24
   NaHCO3          1.028e-04   1.105e-04    -3.988    -3.957     0.031     17.66
   Na2SO4          6.700e-08   6.991e-08    -7.174    -7.155     0.018     47.96
O(0)          1.236e-14
   O2              6.180e-15   6.483e-15   -14.209   -14.188     0.021     30.40
S(-2)         0.000e+00
   HS-             0.000e+00   0.000e+00  -120.236  -120.389    -0.153     21.00
   H2S             0.000e+00   0.000e+00  -120.910  -120.890     0.021     36.27
   S-2             0.000e+00   0.000e+00  -125.332  -125.864    -0.532     (0)  
   (H2S)2          0.000e+00   0.000e+00  -243.078  -243.057     0.021     30.09
S(6)          8.777e-03
   SO4-2           4.929e-03   1.420e-03    -2.307    -2.848    -0.540     15.57
   NaSO4-          1.806e-03   1.337e-03    -2.743    -2.874    -0.130     19.24
   MgSO4           1.681e-03   1.850e-03    -2.774    -2.733     0.042     -0.40
   CaSO4           2.551e-04   2.606e-04    -3.593    -3.584     0.009      7.22
   KSO4-           5.853e-05   4.768e-05    -4.233    -4.322    -0.089     28.77
   Mg(SO4)2-2      2.408e-05   8.654e-06    -4.618    -5.063    -0.444     45.19
   Na2SO4          6.700e-08   6.991e-08    -7.174    -7.155     0.018     47.96
   HSO4-           6.693e-09   4.985e-09    -8.174    -8.302    -0.128     40.66
   CaHSO4+         1.059e-10   7.885e-11    -9.975   -10.103    -0.128     (0)  
Si            2.215e-05
   H4SiO4          2.202e-05   2.310e-05    -4.657    -4.636     0.021     52.08
   H3SiO4-         1.319e-07   9.433e-08    -6.880    -7.025    -0.145     28.37
   H2SiO4-2        5.810e-13   1.777e-13   -12.236   -12.750    -0.514     (0)  

------------------------------Saturation indices-------------------------------

  Phase               SI** log IAP   log K(298 K,   1 atm)

  Anhydrite        -1.41     -5.73   -4.31  CaSO4
  Aragonite        -0.11     -8.45   -8.34  CaCO3
  Arcanite         -6.28     -8.16   -1.88  K2SO4
  Calcite           0.00     -8.45   -8.45  CaCO3
  CH4(g)         -120.33   -123.13   -2.80  CH4
  Chalcedony       -1.08     -4.63   -3.55  SiO2
  Chrysotile       -3.73     28.47   32.20  Mg3Si2O5(OH)4
  CO2(g)           -2.30     -3.77   -1.47  CO2
  Dolomite          0.77    -16.32  -17.08  CaMg(CO3)2
  Epsomite         -3.43     -5.17   -1.74  MgSO4:7H2O
  Gypsum           -1.18     -5.73   -4.55  CaSO4:2H2O
  H2(g)           -35.99    -39.09   -3.10  H2
  H2O(g)           -1.51     -0.00    1.50  H2O
  H2S(g)         -119.90   -127.83   -7.94  H2S
  Halite           -3.46     -1.89    1.57  NaCl
  Hexahydrite      -3.60     -5.17   -1.57  MgSO4:6H2O
  Kieserite        -3.99     -5.15   -1.16  MgSO4:H2O
  Mirabilite       -4.11     -4.81   -0.71  Na2SO4:10H2O
  O2(g)           -11.30    -14.19   -2.89  O2
  Quartz           -0.65     -4.63   -3.98  SiO2
  Sepiolite        -4.50     11.26   15.76  Mg2Si3O7.5OH:3H2O
  Sepiolite(d)     -7.40     11.26   18.66  Mg2Si3O7.5OH:3H2O
  SiO2(a)          -1.92     -4.63   -2.71  SiO2
  Sulfur          -89.83    -84.95    4.88  S
  Sylvite          -4.47     -3.57    0.90  KCl
  Talc             -2.19     19.21   21.40  Mg3Si4O10(OH)2
  Thenardite       -5.44     -4.79    0.65  Na2SO4

**For a gas, SI = log10(fugacity). Fugacity = pressure * phi / 1 atm.
  For ideal gases, phi = 1.

------------------
End of simulation.
------------------

------------------------------------
Reading input data for simulation 6.
------------------------------------

