   Input file: ../examples/ex17b
  Output file: ex17b.out
Database file: ../database/pitzer.dat

------------------
Reading data base.
------------------

	SOLUTION_MASTER_SPECIES
	SOLUTION_SPECIES
	PHASES
	PITZER
	GAS_BINARY_PARAMETERS
	EXCHANGE_MASTER_SPECIES
	EXCHANGE_SPECIES
	SURFACE_MASTER_SPECIES
	SURFACE_SPECIES
	MEAN_GAMMAS
	END
------------------------------------
Reading input data for simulation 1.
------------------------------------

	SOLUTION 1  Black Sea water
	        units   mg/L
	        density 1.014
	        pH      8.0     # estimated
	        Ca      233
	        Mg      679
	        Na      5820
	        K       193
	        S(6)    1460
	        Cl      10340
	        Br      35
	        C       1       CO2(g) -3.5
	EQUILIBRIUM_PHASES
	 CO2(g) -3.5 10
	 Calcite 0 0
	 Gypsum 0 0
	     Anhydrite 0 0
	  Glauberite 0 0
	  Polyhalite 0 0
	 Epsomite 0 0
	   Kieserite 0 0
	  Hexahydrite 0 0
	 Halite 0 0
	     Bischofite 0 0
	 Carnallite 0 0
	USER_GRAPH Example 17B
	 -head H2O Na K Mg Ca Cl SO4 Calcite Gypsum Anhydrite Halite       Glauberite Polyhalite
	 -init false
	 -axis_scale x_axis 0 100
	 -axis_scale y_axis -5 1. 1
	 -axis_scale sy_axis -5 10 5 100
	 -axis_titles "Concentration factor" "Log(Molality)"  "Log(Moles of solid)"
	 -chart_title "Evaporating Black Sea water"
	 -start
	 10 graph_x 1 / tot("water")
	 20 graph_y log10(tot("Na")), log10(tot("K")), log10(tot("Mg")), log10(tot("Ca")),            log10(tot("Cl")), log10(tot("S"))
	 30 if equi("Calcite") > 1e-5 then graph_sy log10(equi("Calcite")) else graph_sy -5
	 35 if equi("Gypsum") > 1e-5 then graph_sy log10(equi("Gypsum")) else graph_sy -5
	 40 if equi("Anhydrite") > 1e-5 then graph_sy log10(equi("Anhydrite")) else graph_sy -5
	 50 if equi("Halite") > 1e-5 then graph_sy log10(equi("Halite")) else graph_sy -5
	 60 if equi("Glauberite") > 1e-5 then graph_sy log10(equi("Glauberite")) else graph_sy -5
	 70 if equi("Polyhalite") > 1e-5 then graph_sy log10(equi("Polyhalite")) else graph_sy -5
	 80 if STEP_NO > 20 THEN PRINT "x", "Na", "K", "Mg", "Ca", "Cl", "S"
	 90 if STEP_NO > 20 THEN PRINT 1 / tot("water"), (tot("Na")), (tot("K")), (tot("Mg")),                               (tot("Ca")), (tot("Cl")), (tot("S"))
	 -end
	REACTION
	 H2O -1
	 0 36 3*4 6*1 2*0.25 0.176 4*0.05 5*0.03
	INCREMENTAL_REACTIONS true
	END
-------------------------------------------
Beginning of initial solution calculations.
-------------------------------------------

Initial solution 1.	Black Sea water

-----------------------------Solution composition------------------------------

	Elements           Molality       Moles

	Br                4.401e-04   4.401e-04
	C                 7.539e-04   7.539e-04  Equilibrium with CO2(g)
	Ca                5.841e-03   5.841e-03
	Cl                2.930e-01   2.930e-01
	K                 4.960e-03   4.960e-03
	Mg                2.807e-02   2.807e-02
	Na                2.544e-01   2.544e-01
	S(6)              1.527e-02   1.527e-02

----------------------------Description of solution----------------------------

                                       pH  =   8.000    
                                       pe  =   4.000    
      Specific Conductance (µS/cm,  25°C)  = 29769
                          Density (g/cm³)  =   1.01092
                               Volume (L)  =   1.00789
                        Viscosity (mPa s)  =   0.92657
                        Activity of water  =   0.990
                 Ionic strength (mol/kgw)  =   3.751e-01
                       Mass of water (kg)  =   1.000e+00
                 Total alkalinity (eq/kg)  =   7.766e-04
                       Total CO2 (mol/kg)  =   7.539e-04
                         Temperature (°C)  =  25.00
                  Electrical balance (eq)  =   2.342e-03
 Percent error, 100*(Cat-|An|)/(Cat+|An|)  =   0.36
                               Iterations  =   8
                         Gamma iterations  =   3
                      Osmotic coefficient  =   0.89868
                         Density of water  =   0.99704
                                  Total H  = 1.110131e+02
                                  Total O  = 5.556955e+01

----------------------------Distribution of species----------------------------

                                                    MacInnes  MacInnes
                                MacInnes       Log       Log       Log    mole V
   Species          Molality    Activity  Molality  Activity     Gamma   cm³/mol

   OH-             1.669e-06   1.002e-06    -5.777    -5.999    -0.222     -3.15
   H+              1.289e-08   1.000e-08    -7.890    -8.000    -0.110      0.00
   H2O             5.551e+01   9.903e-01     1.744    -0.004     0.000     18.07
Br            4.401e-04
   Br-             4.401e-04   3.007e-04    -3.356    -3.522    -0.165     25.07
C(4)          7.539e-04
   HCO3-           7.135e-04   4.887e-04    -3.147    -3.311    -0.164     26.14
   CO3-2           1.588e-05   2.238e-06    -4.799    -5.650    -0.851     -1.84
   MgCO3           1.422e-05   1.422e-05    -4.847    -4.847     0.000    -17.09
   CO2             1.025e-05   1.083e-05    -4.989    -4.965     0.024     34.79
Ca            5.841e-03
   Ca+2            5.841e-03   1.447e-03    -2.233    -2.840    -0.606    -16.97
Cl            2.930e-01
   Cl-             2.930e-01   1.964e-01    -0.533    -0.707    -0.174     18.61
K             4.960e-03
   K+              4.960e-03   3.420e-03    -2.305    -2.466    -0.161      9.48
Mg            2.807e-02
   Mg+2            2.805e-02   7.499e-03    -1.552    -2.125    -0.573    -20.69
   MgCO3           1.422e-05   1.422e-05    -4.847    -4.847     0.000    -17.09
   MgOH+           1.241e-06   1.153e-06    -5.906    -5.938    -0.032     (0)  
Na            2.544e-01
   Na+             2.544e-01   1.837e-01    -0.595    -0.736    -0.141     -0.74
S(6)          1.527e-02
   SO4-2           1.527e-02   2.084e-03    -1.816    -2.681    -0.865     17.45
   HSO4-           2.961e-09   2.026e-09    -8.529    -8.693    -0.165     40.79

------------------------------Saturation indices-------------------------------

  Phase               SI** log IAP   log K(298 K,   1 atm)

  Anhydrite        -1.27     -5.52   -4.25  CaSO4
  Aragonite        -0.27     -8.49   -8.22  CaCO3
  Arcanite         -5.73     -7.61   -1.88  K2SO4
  Artinite         -3.24     16.42   19.66  Mg2CO3(OH)2:3H2O
  Bischofite       -8.16     -3.56    4.59  MgCl2:6H2O
  Bloedite         -6.63     -8.98   -2.35  Na2Mg(SO4)2:4H2O
  Brucite          -3.24    -14.12  -10.88  Mg(OH)2
  Burkeite        -14.66    -15.43   -0.77  Na6CO3(SO4)2
  Calcite          -0.05     -8.49   -8.44  CaCO3
  Carnallite      -11.16     -6.74    4.42  KMgCl3:6H2O
  CO2(g)           -3.50     -4.97   -1.47  CO2	 Pressure   0.0 atm, phi 1.000
  Dolomite          0.82    -16.27  -17.09  CaMg(CO3)2
  Epsomite         -2.99     -4.84   -1.85  MgSO4:7H2O
  Gaylussite       -6.21    -15.63   -9.42  CaNa2(CO3)2:5H2O
  Glaserite        -9.69    -13.50   -3.80  NaK3(SO4)2
  Glauberite       -4.32     -9.67   -5.35  Na2Ca(SO4)2
  Goergeyite       -5.85    -35.22  -29.37  K2Ca5(SO4)6H2O
  Gypsum           -0.93     -5.53   -4.60  CaSO4:2H2O
  H2O(g)           -1.51     -0.00    1.50  H2O
  Halite           -3.02     -1.44    1.58  NaCl
  Hexahydrite      -3.26     -4.83   -1.57  MgSO4:6H2O
  Huntite          -0.70      9.54   10.24  CaMg3(CO3)4
  Kainite          -7.80     -7.99   -0.19  KMgClSO4:3H2O
  Kalicinite       -6.18    -16.12   -9.94  KHCO3
  Kieserite        -4.54     -4.81   -0.27  MgSO4:H2O
  Labile_S         -8.16    -13.83   -5.67  Na4Ca(SO4)3:2H2O
  Leonhardite      -3.94     -4.82   -0.89  MgSO4:4H2O
  Leonite          -8.46    -12.44   -3.98  K2Mg(SO4)2:4H2O
  Magnesite         0.06     -7.78   -7.83  MgCO3
  MgCl2_2H2O      -18.10     -3.55   14.56  MgCl2:2H2O
  MgCl2_4H2O      -10.53     -3.56    6.98  MgCl2:4H2O
  Mirabilite       -2.96     -4.20   -1.24  Na2SO4:10H2O
  Misenite        -75.69    -86.50  -10.81  K8H6(SO4)7
  Nahcolite        -3.64    -14.39  -10.74  NaHCO3
  Natron           -6.34     -7.16   -0.82  Na2CO3:10H2O
  Nesquehonite     -2.62     -7.79   -5.17  MgCO3:3H2O
  Pentahydrite     -3.54     -4.83   -1.28  MgSO4:5H2O
  Pirssonite       -6.39    -15.62   -9.23  Na2Ca(CO3)2:2H2O
  Polyhalite       -9.73    -23.47  -13.74  K2MgCa2(SO4)4:2H2O
  Portlandite      -9.65    -14.84   -5.19  Ca(OH)2
  Schoenite        -8.12    -12.44   -4.33  K2Mg(SO4)2:6H2O
  Sylvite          -4.07     -3.17    0.90  KCl
  Syngenite        -6.71    -13.14   -6.43  K2Ca(SO4)2:H2O
  Thenardite       -3.85     -4.15   -0.30  Na2SO4
  Trona           -10.13    -21.52  -11.38  Na3H(CO3)2:2H2O

**For a gas, SI = log10(fugacity). Fugacity = pressure * phi / 1 atm.
  For ideal gases, phi = 1.

-----------------------------------------
Beginning of batch-reaction calculations.
-----------------------------------------

Reaction step 1.

Using solution 1.	Black Sea water
Using pure phase assemblage 1.	
Using reaction 1.	

Reaction 1.	

	  0.000e+00 moles of the following reaction have been added:

	                 Relative
	Reactant            moles

	H2O                 -1.00000

	                 Relative
	Element             moles
	H                   -2.00000
	O                   -1.00000

-------------------------------Phase assemblage--------------------------------

                                                      Moles in assemblage
Phase               SI  log IAP  log K(T, P)   Initial       Final       Delta

Anhydrite        -1.27    -5.52     -4.25    0.000e+00           0   0.000e+00
Bischofite       -8.16    -3.56      4.59    0.000e+00           0   0.000e+00
CO2(g)           -3.50    -4.97     -1.47    1.000e+01   1.000e+01   0.000e+00
Calcite          -0.05    -8.49     -8.44    0.000e+00           0   0.000e+00
Carnallite      -11.16    -6.74      4.42    0.000e+00           0   0.000e+00
Epsomite         -2.99    -4.84     -1.85    0.000e+00           0   0.000e+00
Glauberite       -4.32    -9.67     -5.35    0.000e+00           0   0.000e+00
Gypsum           -0.93    -5.53     -4.60    0.000e+00           0   0.000e+00
Halite           -3.02    -1.44      1.58    0.000e+00           0   0.000e+00
Hexahydrite      -3.26    -4.83     -1.57    0.000e+00           0   0.000e+00
Kieserite        -4.54    -4.81     -0.27    0.000e+00           0   0.000e+00
Polyhalite       -9.73   -23.47    -13.74    0.000e+00           0   0.000e+00

-----------------------------Solution composition------------------------------

	Elements           Molality       Moles

	Br                4.401e-04   4.401e-04
	C                 7.539e-04   7.539e-04
	Ca                5.841e-03   5.841e-03
	Cl                2.930e-01   2.930e-01
	K                 4.960e-03   4.960e-03
	Mg                2.807e-02   2.807e-02
	Na                2.544e-01   2.544e-01
	S                 1.527e-02   1.527e-02

----------------------------Description of solution----------------------------

                                       pH  =   8.000      Charge balance
                                       pe  =   4.000      Adjusted to redox equilibrium
      Specific Conductance (µS/cm,  25°C)  = 29769
                          Density (g/cm³)  =   1.01092
                               Volume (L)  =   1.00789
                        Viscosity (mPa s)  =   0.92657
                        Activity of water  =   0.990
                 Ionic strength (mol/kgw)  =   3.751e-01
                       Mass of water (kg)  =   1.000e+00
                 Total alkalinity (eq/kg)  =   7.766e-04
                       Total CO2 (mol/kg)  =   7.539e-04
                         Temperature (°C)  =  25.00
                  Electrical balance (eq)  =   2.342e-03
 Percent error, 100*(Cat-|An|)/(Cat+|An|)  =   0.36
                               Iterations  =   1
                         Gamma iterations  =   1
                      Osmotic coefficient  =   0.89868
                         Density of water  =   0.99704
                                  Total H  = 1.110131e+02
                                  Total O  = 5.556955e+01

----------------------------Distribution of species----------------------------

                                                    MacInnes  MacInnes
                                MacInnes       Log       Log       Log    mole V
   Species          Molality    Activity  Molality  Activity     Gamma   cm³/mol

   OH-             1.669e-06   1.002e-06    -5.777    -5.999    -0.222     -3.15
   H+              1.289e-08   1.000e-08    -7.890    -8.000    -0.110      0.00
   H2O             5.551e+01   9.903e-01     1.744    -0.004     0.000     18.07
Br            4.401e-04
   Br-             4.401e-04   3.007e-04    -3.356    -3.522    -0.165     25.07
C(4)          7.539e-04
   HCO3-           7.135e-04   4.887e-04    -3.147    -3.311    -0.164     26.14
   CO3-2           1.588e-05   2.238e-06    -4.799    -5.650    -0.851     -1.84
   MgCO3           1.422e-05   1.422e-05    -4.847    -4.847     0.000    -17.09
   CO2             1.025e-05   1.083e-05    -4.989    -4.965     0.024     34.79
Ca            5.841e-03
   Ca+2            5.841e-03   1.447e-03    -2.233    -2.840    -0.606    -16.97
Cl            2.930e-01
   Cl-             2.930e-01   1.964e-01    -0.533    -0.707    -0.174     18.61
K             4.960e-03
   K+              4.960e-03   3.420e-03    -2.305    -2.466    -0.161      9.48
Mg            2.807e-02
   Mg+2            2.805e-02   7.499e-03    -1.552    -2.125    -0.573    -20.69
   MgCO3           1.422e-05   1.422e-05    -4.847    -4.847     0.000    -17.09
   MgOH+           1.241e-06   1.153e-06    -5.906    -5.938    -0.032     (0)  
Na            2.544e-01
   Na+             2.544e-01   1.837e-01    -0.595    -0.736    -0.141     -0.74
S(6)          1.527e-02
   SO4-2           1.527e-02   2.084e-03    -1.816    -2.681    -0.865     17.45
   HSO4-           2.961e-09   2.026e-09    -8.529    -8.693    -0.165     40.79

------------------------------Saturation indices-------------------------------

  Phase               SI** log IAP   log K(298 K,   1 atm)

  Anhydrite        -1.27     -5.52   -4.25  CaSO4
  Aragonite        -0.27     -8.49   -8.22  CaCO3
  Arcanite         -5.73     -7.61   -1.88  K2SO4
  Artinite         -3.24     16.42   19.66  Mg2CO3(OH)2:3H2O
  Bischofite       -8.16     -3.56    4.59  MgCl2:6H2O
  Bloedite         -6.63     -8.98   -2.35  Na2Mg(SO4)2:4H2O
  Brucite          -3.24    -14.12  -10.88  Mg(OH)2
  Burkeite        -14.66    -15.43   -0.77  Na6CO3(SO4)2
  Calcite          -0.05     -8.49   -8.44  CaCO3
  Carnallite      -11.16     -6.74    4.42  KMgCl3:6H2O
  CO2(g)           -3.50     -4.97   -1.47  CO2	 Pressure   0.0 atm, phi 1.000
  Dolomite          0.82    -16.27  -17.09  CaMg(CO3)2
  Epsomite         -2.99     -4.84   -1.85  MgSO4:7H2O
  Gaylussite       -6.21    -15.63   -9.42  CaNa2(CO3)2:5H2O
  Glaserite        -9.69    -13.50   -3.80  NaK3(SO4)2
  Glauberite       -4.32     -9.67   -5.35  Na2Ca(SO4)2
  Goergeyite       -5.85    -35.22  -29.37  K2Ca5(SO4)6H2O
  Gypsum           -0.93     -5.53   -4.60  CaSO4:2H2O
  H2O(g)           -1.51     -0.00    1.50  H2O
  Halite           -3.02     -1.44    1.58  NaCl
  Hexahydrite      -3.26     -4.83   -1.57  MgSO4:6H2O
  Huntite          -0.70      9.54   10.24  CaMg3(CO3)4
  Kainite          -7.80     -7.99   -0.19  KMgClSO4:3H2O
  Kalicinite       -6.18    -16.12   -9.94  KHCO3
  Kieserite        -4.54     -4.81   -0.27  MgSO4:H2O
  Labile_S         -8.16    -13.83   -5.67  Na4Ca(SO4)3:2H2O
  Leonhardite      -3.94     -4.82   -0.89  MgSO4:4H2O
  Leonite          -8.46    -12.44   -3.98  K2Mg(SO4)2:4H2O
  Magnesite         0.06     -7.78   -7.83  MgCO3
  MgCl2_2H2O      -18.10     -3.55   14.56  MgCl2:2H2O
  MgCl2_4H2O      -10.53     -3.56    6.98  MgCl2:4H2O
  Mirabilite       -2.96     -4.20   -1.24  Na2SO4:10H2O
  Misenite        -75.69    -86.50  -10.81  K8H6(SO4)7
  Nahcolite        -3.64    -14.39  -10.74  NaHCO3
  Natron           -6.34     -7.16   -0.82  Na2CO3:10H2O
  Nesquehonite     -2.62     -7.79   -5.17  MgCO3:3H2O
  Pentahydrite     -3.54     -4.83   -1.28  MgSO4:5H2O
  Pirssonite       -6.39    -15.62   -9.23  Na2Ca(CO3)2:2H2O
  Polyhalite       -9.73    -23.47  -13.74  K2MgCa2(SO4)4:2H2O
  Portlandite      -9.65    -14.84   -5.19  Ca(OH)2
  Schoenite        -8.12    -12.44   -4.33  K2Mg(SO4)2:6H2O
  Sylvite          -4.07     -3.17    0.90  KCl
  Syngenite        -6.71    -13.14   -6.43  K2Ca(SO4)2:H2O
  Thenardite       -3.85     -4.15   -0.30  Na2SO4
  Trona           -10.13    -21.52  -11.38  Na3H(CO3)2:2H2O

**For a gas, SI = log10(fugacity). Fugacity = pressure * phi / 1 atm.
  For ideal gases, phi = 1.

Reaction step 2.

Using solution 1.	Black Sea water
Using pure phase assemblage 1.	
Using reaction 1.	

Reaction 1.	

	  3.600e+01 moles of the following reaction have been added:

	                 Relative
	Reactant            moles

	H2O                 -1.00000

	                 Relative
	Element             moles
	H                   -2.00000
	O                   -1.00000

-------------------------------Phase assemblage--------------------------------

                                                      Moles in assemblage
Phase               SI  log IAP  log K(T, P)   Initial       Final       Delta

Anhydrite        -0.77    -5.02     -4.25    0.000e+00           0   0.000e+00
Bischofite       -6.95    -2.36      4.59    0.000e+00           0   0.000e+00
CO2(g)           -3.50    -4.97     -1.47    1.000e+01   1.000e+01   2.593e-04
Calcite           0.00    -8.44     -8.44    0.000e+00   2.717e-04   2.717e-04
Carnallite       -9.13    -4.71      4.42    0.000e+00           0   0.000e+00
Epsomite         -2.50    -4.35     -1.85    0.000e+00           0   0.000e+00
Glauberite       -2.83    -8.18     -5.35    0.000e+00           0   0.000e+00
Gypsum           -0.44    -5.04     -4.60    0.000e+00           0   0.000e+00
Halite           -2.17    -0.59      1.58    0.000e+00           0   0.000e+00
Hexahydrite      -2.77    -4.34     -1.57    0.000e+00           0   0.000e+00
Kieserite        -4.01    -4.28     -0.27    0.000e+00           0   0.000e+00
Polyhalite       -7.26   -21.00    -13.74    0.000e+00           0   0.000e+00

-----------------------------Solution composition------------------------------

	Elements           Molality       Moles

	Br                1.252e-03   4.401e-04
	C                 6.343e-04   2.229e-04
	Ca                1.585e-02   5.570e-03
	Cl                8.339e-01   2.930e-01
	K                 1.411e-02   4.960e-03
	Mg                7.987e-02   2.807e-02
	Na                7.238e-01   2.544e-01
	S                 4.345e-02   1.527e-02

----------------------------Description of solution----------------------------

                                       pH  =   7.830      Charge balance
                                       pe  =   4.000      Adjusted to redox equilibrium
      Specific Conductance (µS/cm,  25°C)  = 73013
                          Density (g/cm³)  =   1.03526
                               Volume (L)  =   0.35767
                        Viscosity (mPa s)  =   0.99420
                        Activity of water  =   0.972
                 Ionic strength (mol/kgw)  =   1.065e+00
                       Mass of water (kg)  =   3.514e-01
                 Total alkalinity (eq/kg)  =   6.639e-04
                       Total CO2 (mol/kg)  =   6.343e-04
                         Temperature (°C)  =  25.00
                  Electrical balance (eq)  =   2.342e-03
 Percent error, 100*(Cat-|An|)/(Cat+|An|)  =   0.36
                               Iterations  =  14
                         Gamma iterations  =   3
                      Osmotic coefficient  =   0.91504
                         Density of water  =   0.99704
                                  Total H  = 3.901315e+01
                                  Total O  = 1.956822e+01

----------------------------Distribution of species----------------------------

                                                    MacInnes  MacInnes
                                MacInnes       Log       Log       Log    mole V
   Species          Molality    Activity  Molality  Activity     Gamma   cm³/mol

   OH-             1.416e-06   6.655e-07    -5.849    -6.177    -0.328     -2.00
   H+              1.686e-08   1.479e-08    -7.773    -7.830    -0.057      0.00
   H2O             5.551e+01   9.722e-01     1.744    -0.012     0.000     18.07
Br            1.252e-03
   Br-             1.252e-03   7.919e-04    -2.902    -3.101    -0.199     25.39
C(4)          6.343e-04
   HCO3-           5.898e-04   3.245e-04    -3.229    -3.489    -0.260     27.07
   CO3-2           1.779e-05   1.005e-06    -4.750    -5.998    -1.248      0.39
   MgCO3           1.748e-05   1.748e-05    -4.757    -4.757     0.000    -17.09
   CO2             9.257e-06   1.083e-05    -5.034    -4.965     0.068     34.79
Ca            1.585e-02
   Ca+2            1.585e-02   3.618e-03    -1.800    -2.442    -0.642    -16.43
Cl            8.339e-01
   Cl-             8.339e-01   5.010e-01    -0.079    -0.300    -0.221     18.97
K             1.411e-02
   K+              1.411e-02   8.943e-03    -1.850    -2.049    -0.198      9.88
Mg            7.987e-02
   Mg+2            7.986e-02   2.053e-02    -1.098    -1.688    -0.590    -20.14
   MgCO3           1.748e-05   1.748e-05    -4.757    -4.757     0.000    -17.09
   MgOH+           2.122e-06   2.095e-06    -5.673    -5.679    -0.006     (0)  
Na            7.238e-01
   Na+             7.238e-01   5.140e-01    -0.140    -0.289    -0.149     -0.27
S(6)          4.345e-02
   SO4-2           4.345e-02   2.642e-03    -1.362    -2.578    -1.216     19.50
   HSO4-           6.215e-09   3.798e-09    -8.207    -8.420    -0.214     41.13

------------------------------Saturation indices-------------------------------

  Phase               SI** log IAP   log K(298 K,   1 atm)

  Anhydrite        -0.77     -5.02   -4.25  CaSO4
  Aragonite        -0.22     -8.44   -8.22  CaCO3
  Arcanite         -4.80     -6.68   -1.88  K2SO4
  Artinite         -3.09     16.57   19.66  Mg2CO3(OH)2:3H2O
  Bischofite       -6.95     -2.36    4.59  MgCl2:6H2O
  Bloedite         -5.12     -7.47   -2.35  Na2Mg(SO4)2:4H2O
  Brucite          -3.16    -14.04  -10.88  Mg(OH)2
  Burkeite        -12.12    -12.89   -0.77  Na6CO3(SO4)2
  Calcite           0.00     -8.44   -8.44  CaCO3
  Carnallite       -9.13     -4.71    4.42  KMgCl3:6H2O
  CO2(g)           -3.50     -4.97   -1.47  CO2	 Pressure   0.0 atm, phi 1.000
  Dolomite          0.96    -16.12  -17.09  CaMg(CO3)2
  Epsomite         -2.50     -4.35   -1.85  MgSO4:7H2O
  Gaylussite       -5.66    -15.08   -9.42  CaNa2(CO3)2:5H2O
  Glaserite        -7.79    -11.59   -3.80  NaK3(SO4)2
  Glauberite       -2.83     -8.18   -5.35  Na2Ca(SO4)2
  Goergeyite       -2.42    -31.79  -29.37  K2Ca5(SO4)6H2O
  Gypsum           -0.44     -5.04   -4.60  CaSO4:2H2O
  H2O(g)           -1.52     -0.01    1.50  H2O
  Halite           -2.17     -0.59    1.58  NaCl
  Hexahydrite      -2.77     -4.34   -1.57  MgSO4:6H2O
  Huntite          -0.38      9.86   10.24  CaMg3(CO3)4
  Kainite          -6.46     -6.65   -0.19  KMgClSO4:3H2O
  Kalicinite       -5.94    -15.88   -9.94  KHCO3
  Kieserite        -4.01     -4.28   -0.27  MgSO4:H2O
  Labile_S         -5.68    -11.36   -5.67  Na4Ca(SO4)3:2H2O
  Leonhardite      -3.43     -4.31   -0.89  MgSO4:4H2O
  Leonite          -7.01    -10.99   -3.98  K2Mg(SO4)2:4H2O
  Magnesite         0.15     -7.69   -7.83  MgCO3
  MgCl2_2H2O      -16.87     -2.31   14.56  MgCl2:2H2O
  MgCl2_4H2O       -9.32     -2.34    6.98  MgCl2:4H2O
  Mirabilite       -2.04     -3.28   -1.24  Na2SO4:10H2O
  Misenite        -70.61    -81.42  -10.81  K8H6(SO4)7
  Nahcolite        -3.38    -14.12  -10.74  NaHCO3
  Natron           -5.87     -6.70   -0.82  Na2CO3:10H2O
  Nesquehonite     -2.56     -7.72   -5.17  MgCO3:3H2O
  Pentahydrite     -3.04     -4.33   -1.28  MgSO4:5H2O
  Pirssonite       -5.81    -15.04   -9.23  Na2Ca(CO3)2:2H2O
  Polyhalite       -7.26    -21.00  -13.74  K2MgCa2(SO4)4:2H2O
  Portlandite      -9.61    -14.80   -5.19  Ca(OH)2
  Schoenite        -6.69    -11.01   -4.33  K2Mg(SO4)2:6H2O
  Sylvite          -3.25     -2.35    0.90  KCl
  Syngenite        -5.28    -11.71   -6.43  K2Ca(SO4)2:H2O
  Thenardite       -2.86     -3.16   -0.30  Na2SO4
  Trona            -9.33    -20.72  -11.38  Na3H(CO3)2:2H2O

**For a gas, SI = log10(fugacity). Fugacity = pressure * phi / 1 atm.
  For ideal gases, phi = 1.

Reaction step 3.

Using solution 1.	Black Sea water
Using pure phase assemblage 1.	
Using reaction 1.	

Reaction 1.	

	  4.000e+00 moles of the following reaction have been added:

	                 Relative
	Reactant            moles

	H2O                 -1.00000

	                 Relative
	Element             moles
	H                   -2.00000
	O                   -1.00000

-------------------------------Phase assemblage--------------------------------

                                                      Moles in assemblage
Phase               SI  log IAP  log K(T, P)   Initial       Final       Delta

Anhydrite        -0.65    -4.90     -4.25    0.000e+00           0   0.000e+00
Bischofite       -6.67    -2.08      4.59    0.000e+00           0   0.000e+00
CO2(g)           -3.50    -4.97     -1.47    1.000e+01   1.000e+01   2.822e-05
Calcite           0.00    -8.44     -8.44    2.717e-04   3.018e-04   3.011e-05
Carnallite       -8.66    -4.24      4.42    0.000e+00           0   0.000e+00
Epsomite         -2.40    -4.24     -1.85    0.000e+00           0   0.000e+00
Glauberite       -2.49    -7.84     -5.35    0.000e+00           0   0.000e+00
Gypsum           -0.33    -4.93     -4.60    0.000e+00           0   0.000e+00
Halite           -1.97    -0.39      1.58    0.000e+00           0   0.000e+00
Hexahydrite      -2.66    -4.23     -1.57    0.000e+00           0   0.000e+00
Kieserite        -3.88    -4.15     -0.27    0.000e+00           0   0.000e+00
Polyhalite       -6.70   -20.44    -13.74    0.000e+00           0   0.000e+00

-----------------------------Solution composition------------------------------

	Elements           Molality       Moles

	Br                1.575e-03   4.401e-04
	C                 5.891e-04   1.646e-04
	Ca                1.983e-02   5.539e-03
	Cl                1.049e+00   2.930e-01
	K                 1.775e-02   4.960e-03
	Mg                1.005e-01   2.807e-02
	Na                9.105e-01   2.544e-01
	S                 5.466e-02   1.527e-02

----------------------------Description of solution----------------------------

                                       pH  =   7.775      Charge balance
                                       pe  =   4.000      Adjusted to redox equilibrium
      Specific Conductance (µS/cm,  25°C)  = 87964
                          Density (g/cm³)  =   1.04463
                               Volume (L)  =   0.28547
                        Viscosity (mPa s)  =   1.02279
                        Activity of water  =   0.965
                 Ionic strength (mol/kgw)  =   1.340e+00
                       Mass of water (kg)  =   2.794e-01
                 Total alkalinity (eq/kg)  =   6.195e-04
                       Total CO2 (mol/kg)  =   5.891e-04
                         Temperature (°C)  =  25.00
                  Electrical balance (eq)  =   2.342e-03
 Percent error, 100*(Cat-|An|)/(Cat+|An|)  =   0.36
                               Iterations  =   7
                         Gamma iterations  =   3
                      Osmotic coefficient  =   0.92645
                         Density of water  =   0.99704
                                  Total H  = 3.101315e+01
                                  Total O  = 1.556807e+01

----------------------------Distribution of species----------------------------

                                                    MacInnes  MacInnes
                                MacInnes       Log       Log       Log    mole V
   Species          Molality    Activity  Molality  Activity     Gamma   cm³/mol

   OH-             1.324e-06   5.816e-07    -5.878    -6.235    -0.357     -1.59
   H+              1.785e-08   1.679e-08    -7.748    -7.775    -0.027      0.00
   H2O             5.551e+01   9.647e-01     1.744    -0.016     0.000     18.07
Br            1.575e-03
   Br-             1.575e-03   9.887e-04    -2.803    -3.005    -0.202     25.48
C(4)          5.891e-04
   HCO3-           5.448e-04   2.836e-04    -3.264    -3.547    -0.284     27.32
   MgCO3           1.790e-05   1.790e-05    -4.747    -4.747     0.000    -17.09
   CO3-2           1.760e-05   7.735e-07    -4.754    -6.112    -1.357      1.06
   CO2             8.891e-06   1.083e-05    -5.051    -4.965     0.086     34.79
Ca            1.983e-02
   Ca+2            1.983e-02   4.700e-03    -1.703    -2.328    -0.625    -16.27
Cl            1.049e+00
   Cl-             1.049e+00   6.177e-01     0.021    -0.209    -0.230     19.08
K             1.775e-02
   K+              1.775e-02   1.111e-02    -1.751    -1.954    -0.203     10.02
Mg            1.005e-01
   Mg+2            1.005e-01   2.730e-02    -0.998    -1.564    -0.566    -19.97
   MgCO3           1.790e-05   1.790e-05    -4.747    -4.747     0.000    -17.09
   MgOH+           2.470e-06   2.436e-06    -5.607    -5.613    -0.006     (0)  
Na            9.105e-01
   Na+             9.105e-01   6.552e-01    -0.041    -0.184    -0.143     -0.14
S(6)          5.466e-02
   SO4-2           5.466e-02   2.684e-03    -1.262    -2.571    -1.309     20.11
   HSO4-           7.362e-09   4.380e-09    -8.133    -8.359    -0.226     41.22

------------------------------Saturation indices-------------------------------

  Phase               SI** log IAP   log K(298 K,   1 atm)

  Anhydrite        -0.65     -4.90   -4.25  CaSO4
  Aragonite        -0.22     -8.44   -8.22  CaCO3
  Arcanite         -4.60     -6.48   -1.88  K2SO4
  Artinite         -3.09     16.57   19.66  Mg2CO3(OH)2:3H2O
  Bischofite       -6.67     -2.08    4.59  MgCl2:6H2O
  Bloedite         -4.79     -7.14   -2.35  Na2Mg(SO4)2:4H2O
  Brucite          -3.15    -14.03  -10.88  Mg(OH)2
  Burkeite        -11.58    -12.36   -0.77  Na6CO3(SO4)2
  Calcite           0.00     -8.44   -8.44  CaCO3
  Carnallite       -8.66     -4.24    4.42  KMgCl3:6H2O
  CO2(g)           -3.50     -4.97   -1.47  CO2	 Pressure   0.0 atm, phi 1.000
  Dolomite          0.97    -16.11  -17.09  CaMg(CO3)2
  Epsomite         -2.40     -4.24   -1.85  MgSO4:7H2O
  Gaylussite       -5.58    -15.00   -9.42  CaNa2(CO3)2:5H2O
  Glaserite        -7.39    -11.19   -3.80  NaK3(SO4)2
  Glauberite       -2.49     -7.84   -5.35  Na2Ca(SO4)2
  Goergeyite       -1.62    -30.99  -29.37  K2Ca5(SO4)6H2O
  Gypsum           -0.33     -4.93   -4.60  CaSO4:2H2O
  H2O(g)           -1.52     -0.02    1.50  H2O
  Halite           -1.97     -0.39    1.58  NaCl
  Hexahydrite      -2.66     -4.23   -1.57  MgSO4:6H2O
  Huntite          -0.35      9.89   10.24  CaMg3(CO3)4
  Kainite          -6.15     -6.35   -0.19  KMgClSO4:3H2O
  Kalicinite       -5.90    -15.84   -9.94  KHCO3
  Kieserite        -3.88     -4.15   -0.27  MgSO4:H2O
  Labile_S         -5.14    -10.81   -5.67  Na4Ca(SO4)3:2H2O
  Leonhardite      -3.31     -4.20   -0.89  MgSO4:4H2O
  Leonite          -6.70    -10.68   -3.98  K2Mg(SO4)2:4H2O
  Magnesite         0.16     -7.68   -7.83  MgCO3
  MgCl2_2H2O      -16.57     -2.01   14.56  MgCl2:2H2O
  MgCl2_4H2O       -9.02     -2.04    6.98  MgCl2:4H2O
  Mirabilite       -1.85     -3.09   -1.24  Na2SO4:10H2O
  Misenite        -69.48    -80.28  -10.81  K8H6(SO4)7
  Nahcolite        -3.33    -14.07  -10.74  NaHCO3
  Natron           -5.81     -6.63   -0.82  Na2CO3:10H2O
  Nesquehonite     -2.56     -7.72   -5.17  MgCO3:3H2O
  Pentahydrite     -2.93     -4.21   -1.28  MgSO4:5H2O
  Pirssonite       -5.72    -14.95   -9.23  Na2Ca(CO3)2:2H2O
  Polyhalite       -6.70    -20.44  -13.74  K2MgCa2(SO4)4:2H2O
  Portlandite      -9.61    -14.80   -5.19  Ca(OH)2
  Schoenite        -6.38    -10.71   -4.33  K2Mg(SO4)2:6H2O
  Sylvite          -3.06     -2.16    0.90  KCl
  Syngenite        -4.96    -11.39   -6.43  K2Ca(SO4)2:H2O
  Thenardite       -2.64     -2.94   -0.30  Na2SO4
  Trona            -9.20    -20.58  -11.38  Na3H(CO3)2:2H2O

**For a gas, SI = log10(fugacity). Fugacity = pressure * phi / 1 atm.
  For ideal gases, phi = 1.

Reaction step 4.

Using solution 1.	Black Sea water
Using pure phase assemblage 1.	
Using reaction 1.	

Reaction 1.	

	  4.000e+00 moles of the following reaction have been added:

	                 Relative
	Reactant            moles

	H2O                 -1.00000

	                 Relative
	Element             moles
	H                   -2.00000
	O                   -1.00000

-------------------------------Phase assemblage--------------------------------

                                                      Moles in assemblage
Phase               SI  log IAP  log K(T, P)   Initial       Final       Delta

Anhydrite        -0.48    -4.73     -4.25    0.000e+00           0   0.000e+00
Bischofite       -6.27    -1.68      4.59    0.000e+00           0   0.000e+00
CO2(g)           -3.50    -4.97     -1.47    1.000e+01   1.000e+01   2.708e-05
Calcite           0.00    -8.44     -8.44    3.018e-04   3.308e-04   2.901e-05
Carnallite       -8.02    -3.60      4.42    0.000e+00           0   0.000e+00
Epsomite         -2.25    -4.10     -1.85    0.000e+00           0   0.000e+00
Glauberite       -2.03    -7.38     -5.35    0.000e+00           0   0.000e+00
Gypsum           -0.17    -4.77     -4.60    0.000e+00           0   0.000e+00
Halite           -1.71    -0.13      1.58    0.000e+00           0   0.000e+00
Hexahydrite      -2.51    -4.08     -1.57    0.000e+00           0   0.000e+00
Kieserite        -3.70    -3.97     -0.27    0.000e+00           0   0.000e+00
Polyhalite       -5.94   -19.68    -13.74    0.000e+00           0   0.000e+00

-----------------------------Solution composition------------------------------

	Elements           Molality       Moles

	Br                2.123e-03   4.401e-04
	C                 5.234e-04   1.085e-04
	Ca                2.658e-02   5.510e-03
	Cl                1.414e+00   2.930e-01
	K                 2.393e-02   4.960e-03
	Mg                1.354e-01   2.807e-02
	Na                1.227e+00   2.544e-01
	S                 7.367e-02   1.527e-02

----------------------------Description of solution----------------------------

                                       pH  =   7.692      Charge balance
                                       pe  =   4.000      Adjusted to redox equilibrium
      Specific Conductance (µS/cm,  25°C)  = 110910
                          Density (g/cm³)  =   1.06015
                               Volume (L)  =   0.21331
                        Viscosity (mPa s)  =   1.07386
                        Activity of water  =   0.952
                 Ionic strength (mol/kgw)  =   1.805e+00
                       Mass of water (kg)  =   2.073e-01
                 Total alkalinity (eq/kg)  =   5.550e-04
                       Total CO2 (mol/kg)  =   5.234e-04
                         Temperature (°C)  =  25.00
                  Electrical balance (eq)  =   2.342e-03
 Percent error, 100*(Cat-|An|)/(Cat+|An|)  =   0.36
                               Iterations  =   9
                         Gamma iterations  =   3
                      Osmotic coefficient  =   0.94911
                         Density of water  =   0.99704
                                  Total H  = 2.301315e+01
                                  Total O  = 1.156793e+01

----------------------------Distribution of species----------------------------

                                                    MacInnes  MacInnes
                                MacInnes       Log       Log       Log    mole V
   Species          Molality    Activity  Molality  Activity     Gamma   cm³/mol

   OH-             1.189e-06   4.742e-07    -5.925    -6.324    -0.399     -0.90
   H+              1.896e-08   2.031e-08    -7.722    -7.692     0.030      0.00
   H2O             5.551e+01   9.516e-01     1.744    -0.022     0.000     18.07
Br            2.123e-03
   Br-             2.123e-03   1.333e-03    -2.673    -2.875    -0.202     25.61
C(4)          5.234e-04
   HCO3-           4.795e-04   2.312e-04    -3.319    -3.636    -0.317     27.66
   MgCO3           1.859e-05   1.859e-05    -4.731    -4.731     0.000    -17.09
   CO3-2           1.700e-05   5.211e-07    -4.770    -6.283    -1.513      2.07
   CO2             8.304e-06   1.083e-05    -5.081    -4.965     0.115     34.79
Ca            2.658e-02
   Ca+2            2.658e-02   6.976e-03    -1.575    -2.156    -0.581    -16.03
Cl            1.414e+00
   Cl-             1.414e+00   8.154e-01     0.150    -0.089    -0.239     19.23
K             2.393e-02
   K+              2.393e-02   1.486e-02    -1.621    -1.828    -0.207     10.24
Mg            1.354e-01
   Mg+2            1.354e-01   4.210e-02    -0.868    -1.376    -0.507    -19.72
   MgCO3           1.859e-05   1.859e-05    -4.731    -4.731     0.000    -17.09
   MgOH+           3.162e-06   3.062e-06    -5.500    -5.514    -0.014     (0)  
Na            1.227e+00
   Na+             1.227e+00   9.140e-01     0.089    -0.039    -0.128      0.06
S(6)          7.367e-02
   SO4-2           7.367e-02   2.673e-03    -1.133    -2.573    -1.440     21.01
   HSO4-           9.202e-09   5.279e-09    -8.036    -8.277    -0.241     41.36

------------------------------Saturation indices-------------------------------

  Phase               SI** log IAP   log K(298 K,   1 atm)

  Anhydrite        -0.48     -4.73   -4.25  CaSO4
  Aragonite        -0.22     -8.44   -8.22  CaCO3
  Arcanite         -4.35     -6.23   -1.88  K2SO4
  Artinite         -3.08     16.58   19.66  Mg2CO3(OH)2:3H2O
  Bischofite       -6.27     -1.68    4.59  MgCl2:6H2O
  Bloedite         -4.34     -6.69   -2.35  Na2Mg(SO4)2:4H2O
  Brucite          -3.14    -14.02  -10.88  Mg(OH)2
  Burkeite        -10.89    -11.66   -0.77  Na6CO3(SO4)2
  Calcite           0.00     -8.44   -8.44  CaCO3
  Carnallite       -8.02     -3.60    4.42  KMgCl3:6H2O
  CO2(g)           -3.50     -4.97   -1.47  CO2	 Pressure   0.0 atm, phi 1.000
  Dolomite          0.99    -16.10  -17.09  CaMg(CO3)2
  Epsomite         -2.25     -4.10   -1.85  MgSO4:7H2O
  Gaylussite       -5.49    -14.91   -9.42  CaNa2(CO3)2:5H2O
  Glaserite        -6.87    -10.67   -3.80  NaK3(SO4)2
  Glauberite       -2.03     -7.38   -5.35  Na2Ca(SO4)2
  Goergeyite       -0.53    -29.90  -29.37  K2Ca5(SO4)6H2O
  Gypsum           -0.17     -4.77   -4.60  CaSO4:2H2O
  H2O(g)           -1.52     -0.02    1.50  H2O
  Halite           -1.71     -0.13    1.58  NaCl
  Hexahydrite      -2.51     -4.08   -1.57  MgSO4:6H2O
  Huntite          -0.30      9.94   10.24  CaMg3(CO3)4
  Kainite          -5.74     -5.93   -0.19  KMgClSO4:3H2O
  Kalicinite       -5.86    -15.80   -9.94  KHCO3
  Kieserite        -3.70     -3.97   -0.27  MgSO4:H2O
  Labile_S         -4.40    -10.07   -5.67  Na4Ca(SO4)3:2H2O
  Leonhardite      -3.15     -4.03   -0.89  MgSO4:4H2O
  Leonite          -6.28    -10.26   -3.98  K2Mg(SO4)2:4H2O
  Magnesite         0.18     -7.66   -7.83  MgCO3
  MgCl2_2H2O      -16.15     -1.60   14.56  MgCl2:2H2O
  MgCl2_4H2O       -8.62     -1.64    6.98  MgCl2:4H2O
  Mirabilite       -1.63     -2.87   -1.24  Na2SO4:10H2O
  Misenite        -67.98    -78.79  -10.81  K8H6(SO4)7
  Nahcolite        -3.27    -14.01  -10.74  NaHCO3
  Natron           -5.75     -6.58   -0.82  Na2CO3:10H2O
  Nesquehonite     -2.56     -7.72   -5.17  MgCO3:3H2O
  Pentahydrite     -2.77     -4.06   -1.28  MgSO4:5H2O
  Pirssonite       -5.61    -14.84   -9.23  Na2Ca(CO3)2:2H2O
  Polyhalite       -5.94    -19.68  -13.74  K2MgCa2(SO4)4:2H2O
  Portlandite      -9.61    -14.80   -5.19  Ca(OH)2
  Schoenite        -5.98    -10.31   -4.33  K2Mg(SO4)2:6H2O
  Sylvite          -2.82     -1.92    0.90  KCl
  Syngenite        -4.55    -10.98   -6.43  K2Ca(SO4)2:H2O
  Thenardite       -2.35     -2.65   -0.30  Na2SO4
  Trona            -9.03    -20.42  -11.38  Na3H(CO3)2:2H2O

**For a gas, SI = log10(fugacity). Fugacity = pressure * phi / 1 atm.
  For ideal gases, phi = 1.

Reaction step 5.

Using solution 1.	Black Sea water
Using pure phase assemblage 1.	
Using reaction 1.	

Reaction 1.	

	  4.000e+00 moles of the following reaction have been added:

	                 Relative
	Reactant            moles

	H2O                 -1.00000

	                 Relative
	Element             moles
	H                   -2.00000
	O                   -1.00000

-------------------------------Phase assemblage--------------------------------

                                                      Moles in assemblage
Phase               SI  log IAP  log K(T, P)   Initial       Final       Delta

Anhydrite        -0.28    -4.53     -4.25    0.000e+00           0   0.000e+00
Bischofite       -5.64    -1.05      4.59    0.000e+00           0   0.000e+00
CO2(g)           -3.50    -4.97     -1.47    1.000e+01   1.000e+01   2.304e-05
Calcite           0.00    -8.44     -8.44    3.308e-04   3.550e-04   2.416e-05
Carnallite       -7.02    -2.60      4.42    0.000e+00           0   0.000e+00
Epsomite         -2.04    -3.89     -1.85    0.000e+00           0   0.000e+00
Glauberite       -1.42    -6.77     -5.35    0.000e+00           0   0.000e+00
Gypsum            0.00    -4.60     -4.60    0.000e+00   8.330e-04   8.330e-04
Halite           -1.30     0.28      1.58    0.000e+00           0   0.000e+00
Hexahydrite      -2.29    -3.85     -1.57    0.000e+00           0   0.000e+00
Kieserite        -3.41    -3.68     -0.27    0.000e+00           0   0.000e+00
Polyhalite       -4.92   -18.67    -13.74    0.000e+00           0   0.000e+00

-----------------------------Solution composition------------------------------

	Elements           Molality       Moles

	Br                3.255e-03   4.401e-04
	C                 4.533e-04   6.129e-05
	Ca                3.442e-02   4.653e-03
	Cl                2.167e+00   2.930e-01
	K                 3.668e-02   4.960e-03
	Mg                2.076e-01   2.807e-02
	Na                1.881e+00   2.544e-01
	S                 1.068e-01   1.444e-02

----------------------------Description of solution----------------------------

                                       pH  =   7.576      Charge balance
                                       pe  =   4.000      Adjusted to redox equilibrium
      Specific Conductance (µS/cm,  25°C)  = 149735
                          Density (g/cm³)  =   1.09019
                               Volume (L)  =   0.14120
                        Viscosity (mPa s)  =   1.18750
                        Activity of water  =   0.923
                 Ionic strength (mol/kgw)  =   2.742e+00
                       Mass of water (kg)  =   1.352e-01
                 Total alkalinity (eq/kg)  =   4.934e-04
                       Total CO2 (mol/kg)  =   4.533e-04
                         Temperature (°C)  =  25.00
                  Electrical balance (eq)  =   2.342e-03
 Percent error, 100*(Cat-|An|)/(Cat+|An|)  =   0.36
                               Iterations  =  12
                         Gamma iterations  =   4
                      Osmotic coefficient  =   1.00552
                         Density of water  =   0.99704
                                  Total H  = 1.500982e+01
                                  Total O  = 7.562817e+00

----------------------------Distribution of species----------------------------

                                                    MacInnes  MacInnes
                                MacInnes       Log       Log       Log    mole V
   Species          Molality    Activity  Molality  Activity     Gamma   cm³/mol

   OH-             1.028e-06   3.522e-07    -5.988    -6.453    -0.465      0.41
   H+              1.831e-08   2.652e-08    -7.737    -7.576     0.161      0.00
   H2O             5.551e+01   9.228e-01     1.744    -0.035     0.000     18.07
Br            3.255e-03
   Br-             3.255e-03   2.105e-03    -2.487    -2.677    -0.189     25.81
C(4)          4.533e-04
   HCO3-           4.052e-04   1.717e-04    -3.392    -3.765    -0.373     28.21
   MgCO3           2.369e-05   2.369e-05    -4.625    -4.625     0.000    -17.09
   CO3-2           1.712e-05   2.965e-07    -4.767    -6.528    -1.761      3.81
   CO2             7.236e-06   1.083e-05    -5.140    -4.965     0.175     34.79
Ca            3.442e-02
   Ca+2            3.442e-02   1.226e-02    -1.463    -1.912    -0.448    -15.60
Cl            2.167e+00
   Cl-             2.167e+00   1.234e+00     0.336     0.091    -0.245     19.49
K             3.668e-02
   K+              3.668e-02   2.314e-02    -1.436    -1.636    -0.200     10.68
Mg            2.076e-01
   Mg+2            2.076e-01   9.429e-02    -0.683    -1.026    -0.343    -19.25
   MgCO3           2.369e-05   2.369e-05    -4.625    -4.625     0.000    -17.09
   MgOH+           5.588e-06   5.094e-06    -5.253    -5.293    -0.040     (0)  
Na            1.881e+00
   Na+             1.881e+00   1.553e+00     0.274     0.191    -0.083      0.40
S(6)          1.068e-01
   SO4-2           1.068e-01   2.403e-03    -0.971    -2.619    -1.648     22.52
   HSO4-           1.143e-08   6.196e-09    -7.942    -8.208    -0.266     41.57

------------------------------Saturation indices-------------------------------

  Phase               SI** log IAP   log K(298 K,   1 atm)

  Anhydrite        -0.28     -4.53   -4.25  CaSO4
  Aragonite        -0.22     -8.44   -8.22  CaCO3
  Arcanite         -4.01     -5.89   -1.88  K2SO4
  Artinite         -2.92     16.74   19.66  Mg2CO3(OH)2:3H2O
  Bischofite       -5.64     -1.05    4.59  MgCl2:6H2O
  Bloedite         -3.67     -6.02   -2.35  Na2Mg(SO4)2:4H2O
  Brucite          -3.05    -13.93  -10.88  Mg(OH)2
  Burkeite         -9.85    -10.62   -0.77  Na6CO3(SO4)2
  Calcite           0.00     -8.44   -8.44  CaCO3
  Carnallite       -7.02     -2.60    4.42  KMgCl3:6H2O
  CO2(g)           -3.50     -4.97   -1.47  CO2	 Pressure   0.0 atm, phi 1.000
  Dolomite          1.09    -15.99  -17.09  CaMg(CO3)2
  Epsomite         -2.04     -3.89   -1.85  MgSO4:7H2O
  Gaylussite       -5.34    -14.76   -9.42  CaNa2(CO3)2:5H2O
  Glaserite        -6.15     -9.95   -3.80  NaK3(SO4)2
  Glauberite       -1.42     -6.77   -5.35  Na2Ca(SO4)2
  Goergeyite        0.79    -28.58  -29.37  K2Ca5(SO4)6H2O
  Gypsum            0.00     -4.60   -4.60  CaSO4:2H2O
  H2O(g)           -1.54     -0.03    1.50  H2O
  Halite           -1.30      0.28    1.58  NaCl
  Hexahydrite      -2.29     -3.85   -1.57  MgSO4:6H2O
  Huntite           0.02     10.26   10.24  CaMg3(CO3)4
  Kainite          -5.10     -5.29   -0.19  KMgClSO4:3H2O
  Kalicinite       -5.80    -15.74   -9.94  KHCO3
  Kieserite        -3.41     -3.68   -0.27  MgSO4:H2O
  Labile_S         -3.40     -9.07   -5.67  Na4Ca(SO4)3:2H2O
  Leonhardite      -2.90     -3.78   -0.89  MgSO4:4H2O
  Leonite          -5.70     -9.67   -3.98  K2Mg(SO4)2:4H2O
  Magnesite         0.28     -7.55   -7.83  MgCO3
  MgCl2_2H2O      -15.47     -0.91   14.56  MgCl2:2H2O
  MgCl2_4H2O       -7.96     -0.98    6.98  MgCl2:4H2O
  Mirabilite       -1.35     -2.59   -1.24  Na2SO4:10H2O
  Misenite        -66.07    -76.88  -10.81  K8H6(SO4)7
  Nahcolite        -3.17    -13.91  -10.74  NaHCO3
  Natron           -5.67     -6.49   -0.82  Na2CO3:10H2O
  Nesquehonite     -2.49     -7.66   -5.17  MgCO3:3H2O
  Pentahydrite     -2.53     -3.82   -1.28  MgSO4:5H2O
  Pirssonite       -5.42    -14.65   -9.23  Na2Ca(CO3)2:2H2O
  Polyhalite       -4.92    -18.67  -13.74  K2MgCa2(SO4)4:2H2O
  Portlandite      -9.63    -14.82   -5.19  Ca(OH)2
  Schoenite        -5.42     -9.74   -4.33  K2Mg(SO4)2:6H2O
  Sylvite          -2.45     -1.54    0.90  KCl
  Syngenite        -4.03    -10.46   -6.43  K2Ca(SO4)2:H2O
  Thenardite       -1.94     -2.24   -0.30  Na2SO4
  Trona            -8.74    -20.13  -11.38  Na3H(CO3)2:2H2O

**For a gas, SI = log10(fugacity). Fugacity = pressure * phi / 1 atm.
  For ideal gases, phi = 1.

Reaction step 6.

Using solution 1.	Black Sea water
Using pure phase assemblage 1.	
Using reaction 1.	

Reaction 1.	

	  1.000e+00 moles of the following reaction have been added:

	                 Relative
	Reactant            moles

	H2O                 -1.00000

	                 Relative
	Element             moles
	H                   -2.00000
	O                   -1.00000

-------------------------------Phase assemblage--------------------------------

                                                      Moles in assemblage
Phase               SI  log IAP  log K(T, P)   Initial       Final       Delta

Anhydrite        -0.27    -4.52     -4.25    0.000e+00           0   0.000e+00
Bischofite       -5.41    -0.82      4.59    0.000e+00           0   0.000e+00
CO2(g)           -3.50    -4.97     -1.47    1.000e+01   1.000e+01   4.121e-06
Calcite           0.00    -8.44     -8.44    3.550e-04   3.586e-04   3.682e-06
Carnallite       -6.65    -2.23      4.42    0.000e+00           0   0.000e+00
Epsomite         -1.97    -3.82     -1.85    0.000e+00           0   0.000e+00
Glauberite       -1.27    -6.62     -5.35    0.000e+00           0   0.000e+00
Gypsum            0.00    -4.60     -4.60    8.330e-04   1.648e-03   8.145e-04
Halite           -1.15     0.43      1.58    0.000e+00           0   0.000e+00
Hexahydrite      -2.21    -3.78     -1.57    0.000e+00           0   0.000e+00
Kieserite        -3.31    -3.57     -0.27    0.000e+00           0   0.000e+00
Polyhalite       -4.70   -18.44    -13.74    0.000e+00           0   0.000e+00

-----------------------------Solution composition------------------------------

	Elements           Molality       Moles

	Br                3.756e-03   4.401e-04
	C                 4.565e-04   5.348e-05
	Ca                3.273e-02   3.835e-03
	Cl                2.501e+00   2.930e-01
	K                 4.233e-02   4.960e-03
	Mg                2.396e-01   2.807e-02
	Na                2.171e+00   2.544e-01
	S                 1.163e-01   1.362e-02

----------------------------Description of solution----------------------------

                                       pH  =   7.555      Charge balance
                                       pe  =   4.000      Adjusted to redox equilibrium
      Specific Conductance (µS/cm,  25°C)  = 163659
                          Density (g/cm³)  =   1.10238
                               Volume (L)  =   0.12317
                        Viscosity (mPa s)  =   1.24016
                        Activity of water  =   0.909
                 Ionic strength (mol/kgw)  =   3.137e+00
                       Mass of water (kg)  =   1.172e-01
                 Total alkalinity (eq/kg)  =   5.066e-04
                       Total CO2 (mol/kg)  =   4.565e-04
                         Temperature (°C)  =  25.00
                  Electrical balance (eq)  =   2.342e-03
 Percent error, 100*(Cat-|An|)/(Cat+|An|)  =   0.36
                               Iterations  =   8
                         Gamma iterations  =   3
                      Osmotic coefficient  =   1.03330
                         Density of water  =   0.99704
                                  Total H  = 1.300656e+01
                                  Total O  = 6.557910e+00

----------------------------Distribution of species----------------------------

                                                    MacInnes  MacInnes
                                MacInnes       Log       Log       Log    mole V
   Species          Molality    Activity  Molality  Activity     Gamma   cm³/mol

   OH-             1.015e-06   3.305e-07    -5.993    -6.481    -0.488      0.95
   H+              1.667e-08   2.785e-08    -7.778    -7.555     0.223      0.00
   H2O             5.551e+01   9.093e-01     1.744    -0.041     0.000     18.07
Br            3.756e-03
   Br-             3.756e-03   2.478e-03    -2.425    -2.606    -0.181     25.87
C(4)          4.565e-04
   HCO3-           4.013e-04   1.611e-04    -3.397    -3.793    -0.396     28.40
   MgCO3           2.972e-05   2.972e-05    -4.527    -4.527     0.000    -17.09
   CO3-2           1.866e-05   2.649e-07    -4.729    -6.577    -1.848      4.46
   CO2             6.827e-06   1.083e-05    -5.166    -4.965     0.201     34.79
Ca            3.273e-02
   Ca+2            3.273e-02   1.372e-02    -1.485    -1.863    -0.378    -15.43
Cl            2.501e+00
   Cl-             2.501e+00   1.427e+00     0.398     0.154    -0.244     19.58
K             4.233e-02
   K+              4.233e-02   2.714e-02    -1.373    -1.566    -0.193     10.86
Mg            2.396e-01
   Mg+2            2.395e-01   1.324e-01    -0.621    -0.878    -0.258    -19.06
   MgCO3           2.972e-05   2.972e-05    -4.527    -4.527     0.000    -17.09
   MgOH+           7.558e-06   6.710e-06    -5.122    -5.173    -0.052     (0)  
Na            2.171e+00
   Na+             2.171e+00   1.894e+00     0.337     0.277    -0.059      0.52
S(6)          1.163e-01
   SO4-2           1.163e-01   2.211e-03    -0.935    -2.655    -1.721     23.07
   HSO4-           1.128e-08   5.987e-09    -7.948    -8.223    -0.275     41.65

------------------------------Saturation indices-------------------------------

  Phase               SI** log IAP   log K(298 K,   1 atm)

  Anhydrite        -0.27     -4.52   -4.25  CaSO4
  Aragonite        -0.22     -8.44   -8.22  CaCO3
  Arcanite         -3.91     -5.79   -1.88  K2SO4
  Artinite         -2.75     16.91   19.66  Mg2CO3(OH)2:3H2O
  Bischofite       -5.41     -0.82    4.59  MgCl2:6H2O
  Bloedite         -3.45     -5.80   -2.35  Na2Mg(SO4)2:4H2O
  Brucite          -2.96    -13.84  -10.88  Mg(OH)2
  Burkeite         -9.45    -10.22   -0.77  Na6CO3(SO4)2
  Calcite           0.00     -8.44   -8.44  CaCO3
  Carnallite       -6.65     -2.23    4.42  KMgCl3:6H2O
  CO2(g)           -3.50     -4.97   -1.47  CO2	 Pressure   0.0 atm, phi 1.000
  Dolomite          1.19    -15.89  -17.09  CaMg(CO3)2
  Epsomite         -1.97     -3.82   -1.85  MgSO4:7H2O
  Gaylussite       -5.25    -14.67   -9.42  CaNa2(CO3)2:5H2O
  Glaserite        -5.93     -9.73   -3.80  NaK3(SO4)2
  Glauberite       -1.27     -6.62   -5.35  Na2Ca(SO4)2
  Goergeyite        0.95    -28.42  -29.37  K2Ca5(SO4)6H2O
  Gypsum            0.00     -4.60   -4.60  CaSO4:2H2O
  H2O(g)           -1.54     -0.04    1.50  H2O
  Halite           -1.15      0.43    1.58  NaCl
  Hexahydrite      -2.21     -3.78   -1.57  MgSO4:6H2O
  Huntite           0.31     10.55   10.24  CaMg3(CO3)4
  Kainite          -4.88     -5.07   -0.19  KMgClSO4:3H2O
  Kalicinite       -5.76    -15.70   -9.94  KHCO3
  Kieserite        -3.31     -3.57   -0.27  MgSO4:H2O
  Labile_S         -3.13     -8.80   -5.67  Na4Ca(SO4)3:2H2O
  Leonhardite      -2.81     -3.70   -0.89  MgSO4:4H2O
  Leonite          -5.51     -9.49   -3.98  K2Mg(SO4)2:4H2O
  Magnesite         0.38     -7.46   -7.83  MgCO3
  MgCl2_2H2O      -15.21     -0.65   14.56  MgCl2:2H2O
  MgCl2_4H2O       -7.71     -0.73    6.98  MgCl2:4H2O
  Mirabilite       -1.27     -2.51   -1.24  Na2SO4:10H2O
  Misenite        -65.64    -76.45  -10.81  K8H6(SO4)7
  Nahcolite        -3.11    -13.85  -10.74  NaHCO3
  Natron           -5.61     -6.44   -0.82  Na2CO3:10H2O
  Nesquehonite     -2.41     -7.58   -5.17  MgCO3:3H2O
  Pentahydrite     -2.46     -3.74   -1.28  MgSO4:5H2O
  Pirssonite       -5.31    -14.54   -9.23  Na2Ca(CO3)2:2H2O
  Polyhalite       -4.70    -18.44  -13.74  K2MgCa2(SO4)4:2H2O
  Portlandite      -9.63    -14.82   -5.19  Ca(OH)2
  Schoenite        -5.24     -9.57   -4.33  K2Mg(SO4)2:6H2O
  Sylvite          -2.31     -1.41    0.90  KCl
  Syngenite        -3.92    -10.35   -6.43  K2Ca(SO4)2:H2O
  Thenardite       -1.80     -2.10   -0.30  Na2SO4
  Trona            -8.58    -19.96  -11.38  Na3H(CO3)2:2H2O

**For a gas, SI = log10(fugacity). Fugacity = pressure * phi / 1 atm.
  For ideal gases, phi = 1.

Reaction step 7.

Using solution 1.	Black Sea water
Using pure phase assemblage 1.	
Using reaction 1.	

Reaction 1.	

	  1.000e+00 moles of the following reaction have been added:

	                 Relative
	Reactant            moles

	H2O                 -1.00000

	                 Relative
	Element             moles
	H                   -2.00000
	O                   -1.00000

-------------------------------Phase assemblage--------------------------------

                                                      Moles in assemblage
Phase               SI  log IAP  log K(T, P)   Initial       Final       Delta

Anhydrite        -0.25    -4.50     -4.25    0.000e+00           0   0.000e+00
Bischofite       -5.12    -0.52      4.59    0.000e+00           0   0.000e+00
CO2(g)           -3.50    -4.97     -1.47    1.000e+01   1.000e+01   4.166e-06
Calcite           0.00    -8.44     -8.44    3.586e-04   3.621e-04   3.407e-06
Carnallite       -6.20    -1.78      4.42    0.000e+00           0   0.000e+00
Epsomite         -1.89    -3.74     -1.85    0.000e+00           0   0.000e+00
Glauberite       -1.08    -6.43     -5.35    0.000e+00           0   0.000e+00
Gypsum            0.00    -4.60     -4.60    1.648e-03   2.509e-03   8.615e-04
Halite           -0.97     0.62      1.58    0.000e+00           0   0.000e+00
Hexahydrite      -2.12    -3.69     -1.57    0.000e+00           0   0.000e+00
Kieserite        -3.17    -3.43     -0.27    0.000e+00           0   0.000e+00
Polyhalite       -4.40   -18.15    -13.74    0.000e+00           0   0.000e+00

-----------------------------Solution composition------------------------------

	Elements           Molality       Moles

	Br                4.440e-03   4.401e-04
	C                 4.632e-04   4.591e-05
	Ca                2.997e-02   2.970e-03
	Cl                2.957e+00   2.930e-01
	K                 5.004e-02   4.960e-03
	Mg                2.832e-01   2.807e-02
	Na                2.566e+00   2.544e-01
	S                 1.288e-01   1.276e-02

----------------------------Description of solution----------------------------

                                       pH  =   7.528      Charge balance
                                       pe  =   4.000      Adjusted to redox equilibrium
      Specific Conductance (µS/cm,  25°C)  = 179913
                          Density (g/cm³)  =   1.11851
                               Volume (L)  =   0.10515
                        Viscosity (mPa s)  =   1.31696
                        Activity of water  =   0.890
                 Ionic strength (mol/kgw)  =   3.673e+00
                       Mass of water (kg)  =   9.912e-02
                 Total alkalinity (eq/kg)  =   5.301e-04
                       Total CO2 (mol/kg)  =   4.632e-04
                         Temperature (°C)  =  25.00
                  Electrical balance (eq)  =   2.342e-03
 Percent error, 100*(Cat-|An|)/(Cat+|An|)  =   0.37
                               Iterations  =   8
                         Gamma iterations  =   3
                      Osmotic coefficient  =   1.07287
                         Density of water  =   0.99704
                                  Total H  = 1.100311e+01
                                  Total O  = 5.552722e+00

----------------------------Distribution of species----------------------------

                                                    MacInnes  MacInnes
                                MacInnes       Log       Log       Log    mole V
   Species          Molality    Activity  Molality  Activity     Gamma   cm³/mol

   OH-             9.954e-07   3.036e-07    -6.002    -6.518    -0.516      1.67
   H+              1.455e-08   2.968e-08    -7.837    -7.528     0.310      0.00
   H2O             5.551e+01   8.902e-01     1.744    -0.051     0.000     18.07
Br            4.440e-03
   Br-             4.440e-03   3.024e-03    -2.353    -2.519    -0.167     25.96
C(4)          4.632e-04
   HCO3-           3.960e-04   1.480e-04    -3.402    -3.830    -0.427     28.63
   MgCO3           4.030e-05   4.030e-05    -4.395    -4.395     0.000    -17.09
   CO3-2           2.055e-05   2.283e-07    -4.687    -6.641    -1.954      5.29
   CO2             6.308e-06   1.083e-05    -5.200    -4.965     0.235     34.79
Ca            2.997e-02
   Ca+2            2.997e-02   1.592e-02    -1.523    -1.798    -0.275    -15.20
Cl            2.957e+00
   Cl-             2.957e+00   1.698e+00     0.471     0.230    -0.241     19.69
K             5.004e-02
   K+              5.004e-02   3.298e-02    -1.301    -1.482    -0.181     11.10
Mg            2.832e-01
   Mg+2            2.832e-01   2.083e-01    -0.548    -0.681    -0.133    -18.81
   MgCO3           4.030e-05   4.030e-05    -4.395    -4.395     0.000    -17.09
   MgOH+           1.136e-05   9.697e-06    -4.945    -5.013    -0.069     (0)  
Na            2.566e+00
   Na+             2.566e+00   2.428e+00     0.409     0.385    -0.024      0.68
S(6)          1.288e-01
   SO4-2           1.288e-01   1.989e-03    -0.890    -2.701    -1.811     23.77
   HSO4-           1.111e-08   5.739e-09    -7.954    -8.241    -0.287     41.74

------------------------------Saturation indices-------------------------------

  Phase               SI** log IAP   log K(298 K,   1 atm)

  Anhydrite        -0.25     -4.50   -4.25  CaSO4
  Aragonite        -0.22     -8.44   -8.22  CaCO3
  Arcanite         -3.79     -5.66   -1.88  K2SO4
  Artinite         -2.52     17.14   19.66  Mg2CO3(OH)2:3H2O
  Bischofite       -5.12     -0.52    4.59  MgCl2:6H2O
  Bloedite         -3.17     -5.52   -2.35  Na2Mg(SO4)2:4H2O
  Brucite          -2.84    -13.72  -10.88  Mg(OH)2
  Burkeite         -8.96     -9.73   -0.77  Na6CO3(SO4)2
  Calcite           0.00     -8.44   -8.44  CaCO3
  Carnallite       -6.20     -1.78    4.42  KMgCl3:6H2O
  CO2(g)           -3.50     -4.97   -1.47  CO2	 Pressure   0.0 atm, phi 1.000
  Dolomite          1.32    -15.76  -17.09  CaMg(CO3)2
  Epsomite         -1.89     -3.74   -1.85  MgSO4:7H2O
  Gaylussite       -5.14    -14.56   -9.42  CaNa2(CO3)2:5H2O
  Glaserite        -5.66     -9.46   -3.80  NaK3(SO4)2
  Glauberite       -1.08     -6.43   -5.35  Na2Ca(SO4)2
  Goergeyite        1.16    -28.21  -29.37  K2Ca5(SO4)6H2O
  Gypsum            0.00     -4.60   -4.60  CaSO4:2H2O
  H2O(g)           -1.55     -0.05    1.50  H2O
  Halite           -0.97      0.62    1.58  NaCl
  Hexahydrite      -2.12     -3.69   -1.57  MgSO4:6H2O
  Huntite           0.71     10.95   10.24  CaMg3(CO3)4
  Kainite          -4.59     -4.79   -0.19  KMgClSO4:3H2O
  Kalicinite       -5.71    -15.65   -9.94  KHCO3
  Kieserite        -3.17     -3.43   -0.27  MgSO4:H2O
  Labile_S         -2.79     -8.46   -5.67  Na4Ca(SO4)3:2H2O
  Leonhardite      -2.70     -3.58   -0.89  MgSO4:4H2O
  Leonite          -5.27     -9.25   -3.98  K2Mg(SO4)2:4H2O
  Magnesite         0.51     -7.32   -7.83  MgCO3
  MgCl2_2H2O      -14.88     -0.32   14.56  MgCl2:2H2O
  MgCl2_4H2O       -7.40     -0.42    6.98  MgCl2:4H2O
  Mirabilite       -1.20     -2.44   -1.24  Na2SO4:10H2O
  Misenite        -65.12    -75.93  -10.81  K8H6(SO4)7
  Nahcolite        -3.04    -13.78  -10.74  NaHCO3
  Natron           -5.55     -6.38   -0.82  Na2CO3:10H2O
  Nesquehonite     -2.31     -7.47   -5.17  MgCO3:3H2O
  Pentahydrite     -2.35     -3.64   -1.28  MgSO4:5H2O
  Pirssonite       -5.18    -14.41   -9.23  Na2Ca(CO3)2:2H2O
  Polyhalite       -4.40    -18.15  -13.74  K2MgCa2(SO4)4:2H2O
  Portlandite      -9.64    -14.83   -5.19  Ca(OH)2
  Schoenite        -5.02     -9.35   -4.33  K2Mg(SO4)2:6H2O
  Sylvite          -2.15     -1.25    0.90  KCl
  Syngenite        -3.78    -10.21   -6.43  K2Ca(SO4)2:H2O
  Thenardite       -1.63     -1.93   -0.30  Na2SO4
  Trona            -8.37    -19.76  -11.38  Na3H(CO3)2:2H2O

**For a gas, SI = log10(fugacity). Fugacity = pressure * phi / 1 atm.
  For ideal gases, phi = 1.

Reaction step 8.

Using solution 1.	Black Sea water
Using pure phase assemblage 1.	
Using reaction 1.	

Reaction 1.	

	  1.000e+00 moles of the following reaction have been added:

	                 Relative
	Reactant            moles

	H2O                 -1.00000

	                 Relative
	Element             moles
	H                   -2.00000
	O                   -1.00000

-------------------------------Phase assemblage--------------------------------

                                                      Moles in assemblage
Phase               SI  log IAP  log K(T, P)   Initial       Final       Delta

Anhydrite        -0.22    -4.47     -4.25    0.000e+00           0   0.000e+00
Bischofite       -4.74    -0.14      4.59    0.000e+00           0   0.000e+00
CO2(g)           -3.50    -4.97     -1.47    1.000e+01   1.000e+01   4.246e-06
Calcite           0.00    -8.44     -8.44    3.621e-04   3.647e-04   2.681e-06
Carnallite       -5.62    -1.19      4.42    0.000e+00           0   0.000e+00
Epsomite         -1.77    -3.62     -1.85    0.000e+00           0   0.000e+00
Glauberite       -0.82    -6.18     -5.35    0.000e+00           0   0.000e+00
Gypsum            0.00    -4.60     -4.60    2.509e-03   3.404e-03   8.950e-04
Halite           -0.73     0.85      1.58    0.000e+00           0   0.000e+00
Hexahydrite      -1.99    -3.55     -1.57    0.000e+00           0   0.000e+00
Kieserite        -2.96    -3.23     -0.27    0.000e+00           0   0.000e+00
Polyhalite       -4.00   -17.74    -13.74    0.000e+00           0   0.000e+00

-----------------------------Solution composition------------------------------

	Elements           Molality       Moles

	Br                5.429e-03   4.401e-04
	C                 4.809e-04   3.898e-05
	Ca                2.556e-02   2.072e-03
	Cl                3.615e+00   2.930e-01
	K                 6.118e-02   4.960e-03
	Mg                3.463e-01   2.807e-02
	Na                3.138e+00   2.544e-01
	S                 1.464e-01   1.187e-02

----------------------------Description of solution----------------------------

                                       pH  =   7.490      Charge balance
                                       pe  =   4.000      Adjusted to redox equilibrium
      Specific Conductance (µS/cm,  25°C)  = 198372
                          Density (g/cm³)  =   1.14090
                               Volume (L)  =   0.08716
                        Viscosity (mPa s)  =   1.43906
                        Activity of water  =   0.861
                 Ionic strength (mol/kgw)  =   4.446e+00
                       Mass of water (kg)  =   8.107e-02
                 Total alkalinity (eq/kg)  =   5.819e-04
                       Total CO2 (mol/kg)  =   4.809e-04
                         Temperature (°C)  =  25.00
                  Electrical balance (eq)  =   2.342e-03
 Percent error, 100*(Cat-|An|)/(Cat+|An|)  =   0.37
                               Iterations  =   9
                         Gamma iterations  =   4
                      Osmotic coefficient  =   1.13295
                         Density of water  =   0.99704
                                  Total H  = 8.999534e+00
                                  Total O  = 4.547336e+00

----------------------------Distribution of species----------------------------

                                                    MacInnes  MacInnes
                                MacInnes       Log       Log       Log    mole V
   Species          Molality    Activity  Molality  Activity     Gamma   cm³/mol

   OH-             9.639e-07   2.694e-07    -6.016    -6.570    -0.554      2.70
   H+              1.178e-08   3.235e-08    -7.929    -7.490     0.439      0.00
   H2O             5.551e+01   8.609e-01     1.744    -0.065     0.000     18.07
Br            5.429e-03
   Br-             5.429e-03   3.898e-03    -2.265    -2.409    -0.144     26.06
C(4)          4.809e-04
   HCO3-           3.899e-04   1.313e-04    -3.409    -3.882    -0.473     28.94
   MgCO3           6.250e-05   6.250e-05    -4.204    -4.204     0.000    -17.09
   CO3-2           2.288e-05   1.859e-07    -4.641    -6.731    -2.090      6.40
   CO2             5.629e-06   1.083e-05    -5.250    -4.965     0.284     34.79
Ca            2.556e-02
   Ca+2            2.556e-02   1.956e-02    -1.592    -1.709    -0.116    -14.89
Cl            3.615e+00
   Cl-             3.615e+00   2.110e+00     0.558     0.324    -0.234     19.84
K             6.118e-02
   K+              6.118e-02   4.233e-02    -1.213    -1.373    -0.160     11.44
Mg            3.463e-01
   Mg+2            3.462e-01   3.968e-01    -0.461    -0.401     0.059    -18.46
   MgCO3           6.250e-05   6.250e-05    -4.204    -4.204     0.000    -17.09
   MgOH+           2.037e-05   1.639e-05    -4.691    -4.785    -0.094     (0)  
Na            3.138e+00
   Na+             3.138e+00   3.377e+00     0.497     0.529     0.032      0.88
S(6)          1.464e-01
   SO4-2           1.464e-01   1.731e-03    -0.835    -2.762    -1.927     24.69
   HSO4-           1.094e-08   5.444e-09    -7.961    -8.264    -0.303     41.85

------------------------------Saturation indices-------------------------------

  Phase               SI** log IAP   log K(298 K,   1 atm)

  Anhydrite        -0.22     -4.47   -4.25  CaSO4
  Aragonite        -0.22     -8.44   -8.22  CaCO3
  Arcanite         -3.63     -5.51   -1.88  K2SO4
  Artinite         -2.20     17.46   19.66  Mg2CO3(OH)2:3H2O
  Bischofite       -4.74     -0.14    4.59  MgCl2:6H2O
  Bloedite         -2.78     -5.13   -2.35  Na2Mg(SO4)2:4H2O
  Brucite          -2.66    -13.54  -10.88  Mg(OH)2
  Burkeite         -8.31     -9.08   -0.77  Na6CO3(SO4)2
  Calcite           0.00     -8.44   -8.44  CaCO3
  Carnallite       -5.62     -1.19    4.42  KMgCl3:6H2O
  CO2(g)           -3.50     -4.97   -1.47  CO2	 Pressure   0.0 atm, phi 1.000
  Dolomite          1.51    -15.57  -17.09  CaMg(CO3)2
  Epsomite         -1.77     -3.62   -1.85  MgSO4:7H2O
  Gaylussite       -5.02    -14.44   -9.42  CaNa2(CO3)2:5H2O
  Glaserite        -5.31     -9.11   -3.80  NaK3(SO4)2
  Glauberite       -0.82     -6.18   -5.35  Na2Ca(SO4)2
  Goergeyite        1.44    -27.93  -29.37  K2Ca5(SO4)6H2O
  Gypsum            0.00     -4.60   -4.60  CaSO4:2H2O
  H2O(g)           -1.57     -0.07    1.50  H2O
  Halite           -0.73      0.85    1.58  NaCl
  Hexahydrite      -1.99     -3.55   -1.57  MgSO4:6H2O
  Huntite           1.28     11.52   10.24  CaMg3(CO3)4
  Kainite          -4.21     -4.41   -0.19  KMgClSO4:3H2O
  Kalicinite       -5.65    -15.59   -9.94  KHCO3
  Kieserite        -2.96     -3.23   -0.27  MgSO4:H2O
  Labile_S         -2.34     -8.01   -5.67  Na4Ca(SO4)3:2H2O
  Leonhardite      -2.54     -3.42   -0.89  MgSO4:4H2O
  Leonite          -4.95     -8.93   -3.98  K2Mg(SO4)2:4H2O
  Magnesite         0.70     -7.13   -7.83  MgCO3
  MgCl2_2H2O      -14.44      0.12   14.56  MgCl2:2H2O
  MgCl2_4H2O       -6.99     -0.01    6.98  MgCl2:4H2O
  Mirabilite       -1.12     -2.36   -1.24  Na2SO4:10H2O
  Misenite        -64.45    -75.26  -10.81  K8H6(SO4)7
  Nahcolite        -2.95    -13.69  -10.74  NaHCO3
  Natron           -5.50     -6.32   -0.82  Na2CO3:10H2O
  Nesquehonite     -2.16     -7.33   -5.17  MgCO3:3H2O
  Pentahydrite     -2.20     -3.49   -1.28  MgSO4:5H2O
  Pirssonite       -5.01    -14.24   -9.23  Na2Ca(CO3)2:2H2O
  Polyhalite       -4.00    -17.74  -13.74  K2MgCa2(SO4)4:2H2O
  Portlandite      -9.66    -14.85   -5.19  Ca(OH)2
  Schoenite        -4.73     -9.06   -4.33  K2Mg(SO4)2:6H2O
  Sylvite          -1.95     -1.05    0.90  KCl
  Syngenite        -3.61    -10.04   -6.43  K2Ca(SO4)2:H2O
  Thenardite       -1.40     -1.70   -0.30  Na2SO4
  Trona            -8.11    -19.50  -11.38  Na3H(CO3)2:2H2O

**For a gas, SI = log10(fugacity). Fugacity = pressure * phi / 1 atm.
  For ideal gases, phi = 1.

Reaction step 9.

Using solution 1.	Black Sea water
Using pure phase assemblage 1.	
Using reaction 1.	

Reaction 1.	

	  1.000e+00 moles of the following reaction have been added:

	                 Relative
	Reactant            moles

	H2O                 -1.00000

	                 Relative
	Element             moles
	H                   -2.00000
	O                   -1.00000

-------------------------------Phase assemblage--------------------------------

                                                      Moles in assemblage
Phase               SI  log IAP  log K(T, P)   Initial       Final       Delta

Anhydrite        -0.17    -4.42     -4.25    0.000e+00           0   0.000e+00
Bischofite       -4.20     0.39      4.59    0.000e+00           0   0.000e+00
CO2(g)           -3.50    -4.97     -1.47    1.000e+01   1.000e+01   4.588e-06
Calcite           0.00    -8.44     -8.44    3.647e-04   3.651e-04   3.182e-07
Carnallite       -4.81    -0.39      4.42    0.000e+00           0   0.000e+00
Epsomite         -1.60    -3.45     -1.85    0.000e+00           0   0.000e+00
Glauberite       -0.44    -5.79     -5.35    0.000e+00           0   0.000e+00
Gypsum            0.00    -4.60     -4.60    3.404e-03   4.283e-03   8.785e-04
Halite           -0.40     1.19      1.58    0.000e+00           0   0.000e+00
Hexahydrite      -1.79    -3.35     -1.57    0.000e+00           0   0.000e+00
Kieserite        -2.63    -2.90     -0.27    0.000e+00           0   0.000e+00
Polyhalite       -3.38   -17.12    -13.74    0.000e+00           0   0.000e+00

-----------------------------Solution composition------------------------------

	Elements           Molality       Moles

	Br                6.984e-03   4.401e-04
	C                 5.407e-04   3.408e-05
	Ca                1.894e-02   1.194e-03
	Cl                4.650e+00   2.930e-01
	K                 7.870e-02   4.960e-03
	Mg                4.454e-01   2.807e-02
	Na                4.036e+00   2.544e-01
	S                 1.744e-01   1.099e-02

----------------------------Description of solution----------------------------

                                       pH  =   7.436      Charge balance
                                       pe  =   4.000      Adjusted to redox equilibrium
      Specific Conductance (µS/cm,  25°C)  = 217145
                          Density (g/cm³)  =   1.17419
                               Volume (L)  =   0.06922
                        Viscosity (mPa s)  =   1.66120
                        Activity of water  =   0.811
                 Ionic strength (mol/kgw)  =   5.663e+00
                       Mass of water (kg)  =   6.302e-02
                 Total alkalinity (eq/kg)  =   7.385e-04
                       Total CO2 (mol/kg)  =   5.407e-04
                         Temperature (°C)  =  25.00
                  Electrical balance (eq)  =   2.342e-03
 Percent error, 100*(Cat-|An|)/(Cat+|An|)  =   0.37
                               Iterations  =  11
                         Gamma iterations  =   4
                      Osmotic coefficient  =   1.23313
                         Density of water  =   0.99704
                                  Total H  = 6.996020e+00
                                  Total O  = 3.542055e+00

----------------------------Distribution of species----------------------------

                                                    MacInnes  MacInnes
                                MacInnes       Log       Log       Log    mole V
   Species          Molality    Activity  Molality  Activity     Gamma   cm³/mol

   OH-             9.128e-07   2.240e-07    -6.040    -6.650    -0.610      4.28
   H+              8.231e-09   3.666e-08    -8.085    -7.436     0.649      0.00
   H2O             5.551e+01   8.113e-01     1.744    -0.091     0.000     18.07
Br            6.984e-03
   Br-             6.984e-03   5.510e-03    -2.156    -2.259    -0.103     26.19
C(4)          5.407e-04
   HCO3-           3.851e-04   1.092e-04    -3.414    -3.962    -0.547     29.35
   MgCO3           1.253e-04   1.253e-04    -3.902    -3.902     0.000    -17.09
   CO3-2           2.559e-05   1.364e-07    -4.592    -6.865    -2.273      8.00
   CO2             4.709e-06   1.083e-05    -5.327    -4.965     0.362     34.79
Ca            1.894e-02
   Ca+2            1.894e-02   2.665e-02    -1.723    -1.574     0.148    -14.40
Cl            4.650e+00
   Cl-             4.650e+00   2.815e+00     0.667     0.450    -0.218     20.04
K             7.870e-02
   K+              7.870e-02   5.965e-02    -1.104    -1.224    -0.120     11.98
Mg            4.454e-01
   Mg+2            4.452e-01   1.084e+00    -0.351     0.035     0.386    -17.92
   MgCO3           1.253e-04   1.253e-04    -3.902    -3.902     0.000    -17.09
   MgOH+           5.066e-05   3.725e-05    -4.295    -4.429    -0.134     (0)  
Na            4.036e+00
   Na+             4.036e+00   5.442e+00     0.606     0.736     0.130      1.18
S(6)          1.744e-01
   SO4-2           1.744e-01   1.430e-03    -0.759    -2.845    -2.086     25.99
   HSO4-           1.089e-08   5.098e-09    -7.963    -8.293    -0.330     42.00

------------------------------Saturation indices-------------------------------

  Phase               SI** log IAP   log K(298 K,   1 atm)

  Anhydrite        -0.17     -4.42   -4.25  CaSO4
  Aragonite        -0.22     -8.44   -8.22  CaCO3
  Arcanite         -3.41     -5.29   -1.88  K2SO4
  Artinite         -1.70     17.96   19.66  Mg2CO3(OH)2:3H2O
  Bischofite       -4.20      0.39    4.59  MgCl2:6H2O
  Bloedite         -2.20     -4.55   -2.35  Na2Mg(SO4)2:4H2O
  Brucite          -2.38    -13.26  -10.88  Mg(OH)2
  Burkeite         -7.37     -8.14   -0.77  Na6CO3(SO4)2
  Calcite           0.00     -8.44   -8.44  CaCO3
  Carnallite       -4.81     -0.39    4.42  KMgCl3:6H2O
  CO2(g)           -3.50     -4.97   -1.47  CO2	 Pressure   0.0 atm, phi 1.000
  Dolomite          1.82    -15.27  -17.09  CaMg(CO3)2
  Epsomite         -1.60     -3.45   -1.85  MgSO4:7H2O
  Gaylussite       -4.87    -14.29   -9.42  CaNa2(CO3)2:5H2O
  Glaserite        -4.82     -8.63   -3.80  NaK3(SO4)2
  Glauberite       -0.44     -5.79   -5.35  Na2Ca(SO4)2
  Goergeyite        1.89    -27.48  -29.37  K2Ca5(SO4)6H2O
  Gypsum            0.00     -4.60   -4.60  CaSO4:2H2O
  H2O(g)           -1.59     -0.09    1.50  H2O
  Halite           -0.40      1.19    1.58  NaCl
  Hexahydrite      -1.79     -3.35   -1.57  MgSO4:6H2O
  Huntite           2.19     12.43   10.24  CaMg3(CO3)4
  Kainite          -3.66     -3.86   -0.19  KMgClSO4:3H2O
  Kalicinite       -5.59    -15.53   -9.94  KHCO3
  Kieserite        -2.63     -2.90   -0.27  MgSO4:H2O
  Labile_S         -1.67     -7.35   -5.67  Na4Ca(SO4)3:2H2O
  Leonhardite      -2.29     -3.17   -0.89  MgSO4:4H2O
  Leonite          -4.49     -8.47   -3.98  K2Mg(SO4)2:4H2O
  Magnesite         1.00     -6.83   -7.83  MgCO3
  MgCl2_2H2O      -13.80      0.75   14.56  MgCl2:2H2O
  MgCl2_4H2O       -6.41      0.57    6.98  MgCl2:4H2O
  Mirabilite       -1.04     -2.28   -1.24  Na2SO4:10H2O
  Misenite        -63.52    -74.32  -10.81  K8H6(SO4)7
  Nahcolite        -2.82    -13.57  -10.74  NaHCO3
  Natron           -5.48     -6.30   -0.82  Na2CO3:10H2O
  Nesquehonite     -1.94     -7.10   -5.17  MgCO3:3H2O
  Pentahydrite     -1.98     -3.26   -1.28  MgSO4:5H2O
  Pirssonite       -4.78    -14.01   -9.23  Na2Ca(CO3)2:2H2O
  Polyhalite       -3.38    -17.12  -13.74  K2MgCa2(SO4)4:2H2O
  Portlandite      -9.68    -14.87   -5.19  Ca(OH)2
  Schoenite        -4.32     -8.65   -4.33  K2Mg(SO4)2:6H2O
  Sylvite          -1.68     -0.77    0.90  KCl
  Syngenite        -3.37     -9.80   -6.43  K2Ca(SO4)2:H2O
  Thenardite       -1.07     -1.37   -0.30  Na2SO4
  Trona            -7.76    -19.14  -11.38  Na3H(CO3)2:2H2O

**For a gas, SI = log10(fugacity). Fugacity = pressure * phi / 1 atm.
  For ideal gases, phi = 1.

Reaction step 10.

Using solution 1.	Black Sea water
Using pure phase assemblage 1.	
Using reaction 1.	

Reaction 1.	

	  1.000e+00 moles of the following reaction have been added:

[...]
   Br-             4.542e-02   6.019e-02    -1.343    -1.220     0.122     26.51
C(4)          8.402e-03
   MgCO3           6.837e-03   6.837e-03    -2.165    -2.165     0.000    -17.09
   HCO3-           8.761e-04   7.540e-05    -3.057    -4.123    -1.065     30.68
   CO3-2           6.871e-04   7.915e-08    -3.163    -7.102    -3.939     13.71
   CO2             2.746e-06   1.083e-05    -5.561    -4.965     0.596     34.79
Ca            4.613e-03
   Ca+2            4.613e-03   4.593e-02    -2.336    -1.338     0.998    -12.42
Cl            6.295e+00
   Cl-             6.295e+00   4.725e+00     0.799     0.674    -0.125     20.69
K             2.290e-01
   K+              2.290e-01   2.915e-01    -0.640    -0.535     0.105     14.25
Mg            2.756e+00
   Mg+2            2.747e+00   1.019e+02     0.439     2.008     1.569    -15.67
   MgCO3           6.837e-03   6.837e-03    -2.165    -2.165     0.000    -17.09
   MgOH+           2.074e-03   2.418e-03    -2.683    -2.617     0.067     (0)  
Na            1.982e+00
   Na+             1.982e+00   8.076e+00     0.297     0.907     0.610      2.19
S(6)          5.657e-01
   SO4-2           5.657e-01   1.221e-03    -0.247    -2.913    -2.666     30.38
   HSO4-           5.188e-09   5.178e-09    -8.285    -8.286    -0.001     42.42

------------------------------Saturation indices-------------------------------

  Phase               SI** log IAP   log K(298 K,   1 atm)

  Anhydrite         0.00     -4.25   -4.25  CaSO4
  Aragonite        -0.22     -8.44   -8.22  CaCO3
  Arcanite         -2.10     -3.98   -1.88  K2SO4
  Artinite          1.43     21.09   19.66  Mg2CO3(OH)2:3H2O
  Bischofite       -2.29      2.30    4.59  MgCl2:6H2O
  Bloedite         -0.36     -2.71   -2.35  Na2Mg(SO4)2:4H2O
  Brucite          -0.73    -11.61  -10.88  Mg(OH)2
  Burkeite         -6.71     -7.49   -0.77  Na6CO3(SO4)2
  Calcite           0.00     -8.44   -8.44  CaCO3
  Carnallite       -1.98      2.44    4.42  KMgCl3:6H2O
  CO2(g)           -3.50     -4.97   -1.47  CO2	 Pressure   0.0 atm, phi 1.000
  Dolomite          3.55    -13.53  -17.09  CaMg(CO3)2
  Epsomite         -0.29     -2.14   -1.85  MgSO4:7H2O
  Gaylussite       -5.19    -14.61   -9.42  CaNa2(CO3)2:5H2O
  Glaserite        -2.72     -6.53   -3.80  NaK3(SO4)2
  Glauberite        0.00     -5.35   -5.35  Na2Ca(SO4)2
  Goergeyite        3.95    -25.42  -29.37  K2Ca5(SO4)6H2O
  Gypsum           -0.00     -4.60   -4.60  CaSO4:2H2O
  H2O(g)           -1.68     -0.18    1.50  H2O
  Halite            0.00      1.58    1.58  NaCl
  Hexahydrite      -0.39     -1.96   -1.57  MgSO4:6H2O
  Huntite           7.40     17.64   10.24  CaMg3(CO3)4
  Kainite          -1.10     -1.29   -0.19  KMgClSO4:3H2O
  Kalicinite       -5.06    -15.00   -9.94  KHCO3
  Kieserite        -0.81     -1.08   -0.27  MgSO4:H2O
  Labile_S         -1.13     -6.80   -5.67  Na4Ca(SO4)3:2H2O
  Leonhardite      -0.72     -1.61   -0.89  MgSO4:4H2O
  Leonite          -1.61     -5.59   -3.98  K2Mg(SO4)2:4H2O
  Magnesite         2.74     -5.09   -7.83  MgCO3
  MgCl2_2H2O      -11.55      3.00   14.56  MgCl2:2H2O
  MgCl2_4H2O       -4.33      2.65    6.98  MgCl2:4H2O
  Mirabilite       -1.62     -2.86   -1.24  Na2SO4:10H2O
  Misenite        -58.03    -68.84  -10.81  K8H6(SO4)7
  Nahcolite        -2.81    -13.55  -10.74  NaHCO3
  Natron           -6.22     -7.05   -0.82  Na2CO3:10H2O
  Nesquehonite     -0.45     -5.62   -5.17  MgCO3:3H2O
  Pentahydrite     -0.50     -1.79   -1.28  MgSO4:5H2O
  Pirssonite       -4.85    -14.08   -9.23  Na2Ca(CO3)2:2H2O
  Polyhalite        0.00    -13.74  -13.74  K2MgCa2(SO4)4:2H2O
  Portlandite      -9.77    -14.96   -5.19  Ca(OH)2
  Schoenite        -1.62     -5.95   -4.33  K2Mg(SO4)2:6H2O
  Sylvite          -0.76      0.14    0.90  KCl
  Syngenite        -1.98     -8.41   -6.43  K2Ca(SO4)2:H2O
  Thenardite       -0.80     -1.10   -0.30  Na2SO4
  Trona            -7.81    -19.19  -11.38  Na3H(CO3)2:2H2O

**For a gas, SI = log10(fugacity). Fugacity = pressure * phi / 1 atm.
  For ideal gases, phi = 1.

Reaction step 22.

Using solution 1.	Black Sea water
Using pure phase assemblage 1.	
Using reaction 1.	

Reaction 1.	

	  3.000e-02 moles of the following reaction have been added:

	                 Relative
	Reactant            moles

	H2O                 -1.00000

	                 Relative
	Element             moles
	H                   -2.00000
	O                   -1.00000

-------------------------------Phase assemblage--------------------------------

                                                      Moles in assemblage
Phase               SI  log IAP  log K(T, P)   Initial       Final       Delta

Anhydrite         0.00    -4.25     -4.25    1.201e-03   1.431e-03   2.305e-04
Bischofite       -2.23     2.36      4.59    0.000e+00           0   0.000e+00
CO2(g)           -3.50    -4.97     -1.47    1.000e+01   1.000e+01   6.704e-07
Calcite           0.00    -8.44     -8.44    3.011e-04   2.881e-04  -1.296e-05
Carnallite       -1.96     2.46      4.42    0.000e+00           0   0.000e+00
Epsomite         -0.23    -2.08     -1.85    0.000e+00           0   0.000e+00
Glauberite       -0.00    -5.35     -5.35    1.554e-03   9.548e-04  -5.990e-04
Gypsum           -0.01    -4.61     -4.60    0.000e+00           0   0.000e+00
Halite            0.00     1.58      1.58    2.321e-01   2.356e-01   3.547e-03
Hexahydrite      -0.33    -1.90     -1.57    0.000e+00           0   0.000e+00
Kieserite        -0.73    -1.00     -0.27    0.000e+00           0   0.000e+00
Polyhalite       -0.00   -13.74    -13.74    1.370e-03   1.565e-03   1.941e-04

-----------------------------Solution composition------------------------------

	Elements           Molality       Moles

	Br                4.814e-02   4.401e-04
	C                 1.025e-02   9.371e-05
	Ca                4.147e-03   3.791e-05
	Cl                6.284e+00   5.745e-02
	K                 2.003e-01   1.831e-03
	Mg                2.899e+00   2.651e-02
	Na                1.844e+00   1.685e-02
	S                 6.204e-01   5.672e-03

----------------------------Description of solution----------------------------

                                       pH  =   7.368      Charge balance
                                       pe  =   4.000      Adjusted to redox equilibrium
      Specific Conductance (µS/cm,  25°C)  = 142955
                          Density (g/cm³)  =   1.26215
                               Volume (L)  =   0.01020
                        Viscosity (mPa s)  =   3.90057
                        Activity of water  =   0.660
                 Ionic strength (mol/kgw)  =   1.122e+01
                       Mass of water (kg)  =   9.142e-03
                 Total alkalinity (eq/kg)  =   2.192e-02
                       Total CO2 (mol/kg)  =   1.025e-02
                         Temperature (°C)  =  25.00
                  Electrical balance (eq)  =   2.342e-03
 Percent error, 100*(Cat-|An|)/(Cat+|An|)  =   1.66
                               Iterations  =   9
                         Gamma iterations  =   3
                      Osmotic coefficient  =   1.93850
                         Density of water  =   0.99704
                                  Total H  = 1.014892e+00
                                  Total O  = 5.304213e-01

----------------------------Distribution of species----------------------------

                                                    MacInnes  MacInnes
                                MacInnes       Log       Log       Log    mole V
   Species          Molality    Activity  Molality  Activity     Gamma   cm³/mol

   OH-             4.666e-06   1.557e-07    -5.331    -6.808    -1.477     11.25
   H+              1.839e-09   4.290e-08    -8.736    -7.368     1.368      0.00
   H2O             5.551e+01   6.599e-01     1.744    -0.181     0.000     18.07
Br            4.814e-02
   Br-             4.814e-02   6.532e-02    -1.317    -1.185     0.133     26.52
C(4)          1.025e-02
   MgCO3           8.410e-03   8.410e-03    -2.075    -2.075     0.000    -17.09
   HCO3-           9.703e-04   7.591e-05    -3.013    -4.120    -1.107     30.74
   CO3-2           8.674e-04   8.101e-08    -3.062    -7.091    -4.030     14.01
   CO2             2.656e-06   1.083e-05    -5.576    -4.965     0.610     34.79
Ca            4.147e-03
   Ca+2            4.147e-03   4.487e-02    -2.382    -1.348     1.034    -12.31
Cl            6.284e+00
   Cl-             6.284e+00   4.780e+00     0.798     0.679    -0.119     20.72
K             2.003e-01
   K+              2.003e-01   2.624e-01    -0.698    -0.581     0.117     14.38
Mg            2.899e+00
   Mg+2            2.889e+00   1.225e+02     0.461     2.088     1.627    -15.55
   MgCO3           8.410e-03   8.410e-03    -2.075    -2.075     0.000    -17.09
   MgOH+           2.386e-03   2.925e-03    -2.622    -2.534     0.089     (0)  
Na            1.844e+00
   Na+             1.844e+00   7.982e+00     0.266     0.902     0.636      2.24
S(6)          6.204e-01
   SO4-2           6.204e-01   1.250e-03    -0.207    -2.903    -2.696     30.60
   HSO4-           4.997e-09   5.212e-09    -8.301    -8.283     0.018     42.44

------------------------------Saturation indices-------------------------------

  Phase               SI** log IAP   log K(298 K,   1 atm)

  Anhydrite         0.00     -4.25   -4.25  CaSO4
  Aragonite        -0.22     -8.44   -8.22  CaCO3
  Arcanite         -2.19     -4.07   -1.88  K2SO4
  Artinite          1.60     21.26   19.66  Mg2CO3(OH)2:3H2O
  Bischofite       -2.23      2.36    4.59  MgCl2:6H2O
  Bloedite         -0.29     -2.64   -2.35  Na2Mg(SO4)2:4H2O
  Brucite          -0.65    -11.53  -10.88  Mg(OH)2
  Burkeite         -6.71     -7.49   -0.77  Na6CO3(SO4)2
  Calcite           0.00     -8.44   -8.44  CaCO3
  Carnallite       -1.96      2.46    4.42  KMgCl3:6H2O
  CO2(g)           -3.50     -4.97   -1.47  CO2	 Pressure   0.0 atm, phi 1.000
  Dolomite          3.64    -13.44  -17.09  CaMg(CO3)2
  Epsomite         -0.23     -2.08   -1.85  MgSO4:7H2O
  Gaylussite       -5.21    -14.63   -9.42  CaNa2(CO3)2:5H2O
  Glaserite        -2.84     -6.65   -3.80  NaK3(SO4)2
  Glauberite       -0.00     -5.35   -5.35  Na2Ca(SO4)2
  Goergeyite        3.87    -25.50  -29.37  K2Ca5(SO4)6H2O
  Gypsum           -0.01     -4.61   -4.60  CaSO4:2H2O
  H2O(g)           -1.68     -0.18    1.50  H2O
  Halite            0.00      1.58    1.58  NaCl
  Hexahydrite      -0.33     -1.90   -1.57  MgSO4:6H2O
  Huntite           7.67     17.91   10.24  CaMg3(CO3)4
  Kainite          -1.07     -1.26   -0.19  KMgClSO4:3H2O
  Kalicinite       -5.10    -15.04   -9.94  KHCO3
  Kieserite        -0.73     -1.00   -0.27  MgSO4:H2O
  Labile_S         -1.14     -6.81   -5.67  Na4Ca(SO4)3:2H2O
  Leonhardite      -0.65     -1.54   -0.89  MgSO4:4H2O
  Leonite          -1.62     -5.60   -3.98  K2Mg(SO4)2:4H2O
  Magnesite         2.83     -5.00   -7.83  MgCO3
  MgCl2_2H2O      -11.47      3.09   14.56  MgCl2:2H2O
  MgCl2_4H2O       -4.25      2.73    6.98  MgCl2:4H2O
  Mirabilite       -1.66     -2.90   -1.24  Na2SO4:10H2O
  Misenite        -58.37    -69.18  -10.81  K8H6(SO4)7
  Nahcolite        -2.81    -13.56  -10.74  NaHCO3
  Natron           -6.27     -7.09   -0.82  Na2CO3:10H2O
  Nesquehonite     -0.38     -5.54   -5.17  MgCO3:3H2O
  Pentahydrite     -0.43     -1.72   -1.28  MgSO4:5H2O
  Pirssonite       -4.85    -14.09   -9.23  Na2Ca(CO3)2:2H2O
  Polyhalite       -0.00    -13.74  -13.74  K2MgCa2(SO4)4:2H2O
  Portlandite      -9.77    -14.96   -5.19  Ca(OH)2
  Schoenite        -1.64     -5.96   -4.33  K2Mg(SO4)2:6H2O
  Sylvite          -0.80      0.10    0.90  KCl
  Syngenite        -2.07     -8.50   -6.43  K2Ca(SO4)2:H2O
  Thenardite       -0.80     -1.10   -0.30  Na2SO4
  Trona            -7.82    -19.21  -11.38  Na3H(CO3)2:2H2O

**For a gas, SI = log10(fugacity). Fugacity = pressure * phi / 1 atm.
  For ideal gases, phi = 1.

Reaction step 23.

Using solution 1.	Black Sea water
Using pure phase assemblage 1.	
Using reaction 1.	

Reaction 1.	

	  3.000e-02 moles of the following reaction have been added:

	                 Relative
	Reactant            moles

	H2O                 -1.00000

	                 Relative
	Element             moles
	H                   -2.00000
	O                   -1.00000

-------------------------------Phase assemblage--------------------------------

                                                      Moles in assemblage
Phase               SI  log IAP  log K(T, P)   Initial       Final       Delta

Anhydrite         0.00    -4.25     -4.25    1.431e-03   1.744e-03   3.130e-04
Bischofite       -2.16     2.44      4.59    0.000e+00           0   0.000e+00
CO2(g)           -3.50    -4.97     -1.47    1.000e+01   1.000e+01   8.377e-07
Calcite           0.00    -8.44     -8.44    2.881e-04   2.703e-04  -1.789e-05
Carnallite       -1.94     2.49      4.42    0.000e+00           0   0.000e+00
Epsomite         -0.16    -2.01     -1.85    0.000e+00           0   0.000e+00
Glauberite        0.00    -5.35     -5.35    9.548e-04   3.126e-04  -6.422e-04
Gypsum           -0.02    -4.62     -4.60    0.000e+00           0   0.000e+00
Halite            0.00     1.58      1.58    2.356e-01   2.392e-01   3.564e-03
Hexahydrite      -0.26    -1.83     -1.57    0.000e+00           0   0.000e+00
Kieserite        -0.63    -0.90     -0.27    0.000e+00           0   0.000e+00
Polyhalite       -0.00   -13.74    -13.74    1.565e-03   1.741e-03   1.767e-04

-----------------------------Solution composition------------------------------

	Elements           Molality       Moles

	Br                5.121e-02   4.401e-04
	C                 1.289e-02   1.108e-04
	Ca                3.672e-03   3.156e-05
	Cl                6.269e+00   5.388e-02
	K                 1.719e-01   1.477e-03
	Mg                3.063e+00   2.633e-02
	Na                1.696e+00   1.457e-02
	S                 6.907e-01   5.936e-03

----------------------------Description of solution----------------------------

                                       pH  =   7.376      Charge balance
                                       pe  =   4.000      Adjusted to redox equilibrium
      Specific Conductance (µS/cm,  25°C)  = 134701
                          Density (g/cm³)  =   1.26799
                               Volume (L)  =   0.00958
                        Viscosity (mPa s)  =   4.21186
                        Activity of water  =   0.652
                 Ionic strength (mol/kgw)  =   1.159e+01
                       Mass of water (kg)  =   8.595e-03
                 Total alkalinity (eq/kg)  =   2.747e-02
                       Total CO2 (mol/kg)  =   1.289e-02
                         Temperature (°C)  =  25.00
                  Electrical balance (eq)  =   2.342e-03
 Percent error, 100*(Cat-|An|)/(Cat+|An|)  =   1.74
                               Iterations  =   9
                         Gamma iterations  =   3
                      Osmotic coefficient  =   1.98691
                         Density of water  =   0.99704
                                  Total H  = 9.541849e-01
                                  Total O  = 5.011779e-01

----------------------------Distribution of species----------------------------

                                                    MacInnes  MacInnes
                                MacInnes       Log       Log       Log    mole V
   Species          Molality    Activity  Molality  Activity     Gamma   cm³/mol

   OH-             5.323e-06   1.569e-07    -5.274    -6.804    -1.531     11.70
   H+              1.648e-09   4.207e-08    -8.783    -7.376     1.407      0.00
   H2O             5.551e+01   6.520e-01     1.744    -0.186     0.000     18.07
Br            5.121e-02
   Br-             5.121e-02   7.143e-02    -1.291    -1.146     0.145     26.54
C(4)          1.289e-02
   MgCO3           1.066e-02   1.066e-02    -1.972    -1.972     0.000    -17.09
   CO3-2           1.125e-03   8.326e-08    -2.949    -7.080    -4.131     14.36
   HCO3-           1.098e-03   7.649e-05    -2.959    -4.116    -1.157     30.81
   CO2             2.549e-06   1.083e-05    -5.594    -4.965     0.628     34.79
Ca            3.672e-03
   Ca+2            3.672e-03   4.366e-02    -2.435    -1.360     1.075    -12.17
Cl            6.269e+00
   Cl-             6.269e+00   4.846e+00     0.797     0.685    -0.112     20.75
K             1.719e-01
   K+              1.719e-01   2.326e-01    -0.765    -0.633     0.131     14.54
Mg            3.063e+00
   Mg+2            3.050e+00   1.511e+02     0.484     2.179     1.695    -15.39
   MgCO3           1.066e-02   1.066e-02    -1.972    -1.972     0.000    -17.09
   MgOH+           2.798e-03   3.636e-03    -2.553    -2.439     0.114     (0)  
Na            1.696e+00
   Na+             1.696e+00   7.874e+00     0.229     0.896     0.667      2.30
S(6)          6.907e-01
   SO4-2           6.907e-01   1.284e-03    -0.161    -2.891    -2.731     30.86
   HSO4-           4.803e-09   5.252e-09    -8.319    -8.280     0.039     42.46

------------------------------Saturation indices-------------------------------

  Phase               SI** log IAP   log K(298 K,   1 atm)

  Anhydrite         0.00     -4.25   -4.25  CaSO4
  Aragonite        -0.22     -8.44   -8.22  CaCO3
  Arcanite         -2.28     -4.16   -1.88  K2SO4
  Artinite          1.78     21.44   19.66  Mg2CO3(OH)2:3H2O
  Bischofite       -2.16      2.44    4.59  MgCl2:6H2O
  Bloedite         -0.21     -2.55   -2.35  Na2Mg(SO4)2:4H2O
  Brucite          -0.55    -11.43  -10.88  Mg(OH)2
  Burkeite         -6.71     -7.49   -0.77  Na6CO3(SO4)2
  Calcite           0.00     -8.44   -8.44  CaCO3
  Carnallite       -1.94      2.49    4.42  KMgCl3:6H2O
  CO2(g)           -3.50     -4.97   -1.47  CO2	 Pressure   0.0 atm, phi 1.000
  Dolomite          3.75    -13.34  -17.09  CaMg(CO3)2
  Epsomite         -0.16     -2.01   -1.85  MgSO4:7H2O
  Gaylussite       -5.23    -14.66   -9.42  CaNa2(CO3)2:5H2O
  Glaserite        -2.98     -6.79   -3.80  NaK3(SO4)2
  Glauberite        0.00     -5.35   -5.35  Na2Ca(SO4)2
  Goergeyite        3.77    -25.60  -29.37  K2Ca5(SO4)6H2O
  Gypsum           -0.02     -4.62   -4.60  CaSO4:2H2O
  H2O(g)           -1.69     -0.19    1.50  H2O
  Halite            0.00      1.58    1.58  NaCl
  Hexahydrite      -0.26     -1.83   -1.57  MgSO4:6H2O
  Huntite           7.97     18.22   10.24  CaMg3(CO3)4
  Kainite          -1.02     -1.22   -0.19  KMgClSO4:3H2O
  Kalicinite       -5.15    -15.09   -9.94  KHCO3
  Kieserite        -0.63     -0.90   -0.27  MgSO4:H2O
  Labile_S         -1.15     -6.82   -5.67  Na4Ca(SO4)3:2H2O
  Leonhardite      -0.57     -1.46   -0.89  MgSO4:4H2O
  Leonite          -1.63     -5.61   -3.98  K2Mg(SO4)2:4H2O
  Magnesite         2.93     -4.90   -7.83  MgCO3
  MgCl2_2H2O      -11.38      3.18   14.56  MgCl2:2H2O
  MgCl2_4H2O       -4.17      2.81    6.98  MgCl2:4H2O
  Mirabilite       -1.72     -2.96   -1.24  Na2SO4:10H2O
  Misenite        -58.76    -69.56  -10.81  K8H6(SO4)7
  Nahcolite        -2.82    -13.56  -10.74  NaHCO3
  Natron           -6.32     -7.14   -0.82  Na2CO3:10H2O
  Nesquehonite     -0.29     -5.46   -5.17  MgCO3:3H2O
  Pentahydrite     -0.36     -1.64   -1.28  MgSO4:5H2O
  Pirssonite       -4.86    -14.10   -9.23  Na2Ca(CO3)2:2H2O
  Polyhalite       -0.00    -13.74  -13.74  K2MgCa2(SO4)4:2H2O
  Portlandite      -9.78    -14.97   -5.19  Ca(OH)2
  Schoenite        -1.66     -5.98   -4.33  K2Mg(SO4)2:6H2O
  Sylvite          -0.85      0.05    0.90  KCl
  Syngenite        -2.16     -8.59   -6.43  K2Ca(SO4)2:H2O
  Thenardite       -0.80     -1.10   -0.30  Na2SO4
  Trona            -7.83    -19.22  -11.38  Na3H(CO3)2:2H2O

**For a gas, SI = log10(fugacity). Fugacity = pressure * phi / 1 atm.
  For ideal gases, phi = 1.

------------------
End of simulation.
------------------

------------------------------------
Reading input data for simulation 2.
------------------------------------

