   Input file: ../examples/ex22
  Output file: ex22.out
Database file: ../database/phreeqc.dat

------------------
Reading data base.
------------------

	SOLUTION_MASTER_SPECIES
	SOLUTION_SPECIES
	PHASES
	GAS_BINARY_PARAMETERS
	EXCHANGE_MASTER_SPECIES
	EXCHANGE_SPECIES
	SURFACE_MASTER_SPECIES
	SURFACE_SPECIES
	MEAN_GAMMAS
	RATES
	END
------------------------------------
Reading input data for simulation 1.
------------------------------------

	TITLE Example 22.--Compare experimental CO2 solubilities at high CO2 pressure with
	      Peng-Robinson calc`ns with fixed-volume gas_phase, 25, 50, 75, 100, 150 oC.
	PRINT
	warnings 0
	SOLUTION 1
	GAS_PHASE 1
	    fixed_volume
	    CO2(g) 0
	    H2O(g) 0
	REACTION
	 CO2 1
	 0 31*1
	INCREMENTAL_REACTIONS true
	USER_GRAPH 1 Example 22,
	  -chart_title "CO2 solubility at high pressures, 25 - 100 ºC"
	 -plot_csv_file co2.dat
	 -axis_titles "Pressure / atm" "CO2 / (mol/kgw)"
	 -axis_scale x_axis 0 500
	 -axis_scale y_axis 0 2
	 -connect_simulations false
	 10 graph_x PR_P("CO2(g)")
	 20 graph_y TOT("C(4)")
	 -end
	USER_GRAPH 2 Example 22, P-Vm of CO2 gas, 25 - 150 ºC
	 -chart_title "P-Vm of CO2 gas, data from Michels et al., 1935, 1937"
	 -plot_csv_file co2_VP.dat
	 -axis_titles "molar volume of CO2 gas / (L/mol)" "CO2 pressure / atm"
	 -axis_scale x_axis 0 0.7
	 -axis_scale y_axis 0 700
	 -connect_simulations false
	 10 graph_x gas_vm : graph_y gas_p
	END
-----
TITLE
-----

 Example 22.--Compare experimental CO2 solubilities at high CO2 pressure with
      Peng-Robinson calc`ns with fixed-volume gas_phase, 25, 50, 75, 100, 150 oC.

-------------------------------------------
Beginning of initial solution calculations.
-------------------------------------------

Initial solution 1.	

-----------------------------Solution composition------------------------------

	Elements           Molality       Moles

	Pure water     

----------------------------Description of solution----------------------------

                                       pH  =   7.000    
                                       pe  =   4.000    
      Specific Conductance (µS/cm,  25°C)  = 0
                          Density (g/cm³)  =   0.99704
                               Volume (L)  =   1.00297
                        Viscosity (mPa s)  =   0.89002
                        Activity of water  =   1.000
                 Ionic strength (mol/kgw)  =   1.007e-07
                       Mass of water (kg)  =   1.000e+00
                 Total alkalinity (eq/kg)  =   1.217e-09
                         Temperature (°C)  =  25.00
                  Electrical balance (eq)  =  -1.217e-09
 Percent error, 100*(Cat-|An|)/(Cat+|An|)  =  -0.60
                               Iterations  =   0
                                  Total H  = 1.110124e+02
                                  Total O  = 5.550622e+01

----------------------------Distribution of species----------------------------

                                               Log       Log       Log    mole V
   Species          Molality    Activity  Molality  Activity     Gamma   cm³/mol

   OH-             1.013e-07   1.012e-07    -6.995    -6.995    -0.000     -4.14
   H+              1.001e-07   1.000e-07    -7.000    -7.000    -0.000      0.00
   H2O             5.551e+01   1.000e+00     1.744     0.000     0.000     18.07
H(0)          1.416e-25
   H2              7.079e-26   7.079e-26   -25.150   -25.150     0.000     14.99
O(0)          0.000e+00
   O2              0.000e+00   0.000e+00   -42.063   -42.063     0.000     30.40

------------------------------Saturation indices-------------------------------

  Phase               SI** log IAP   log K(298 K,   1 atm)

  H2(g)           -22.05    -25.15   -3.10  H2
  H2O(g)           -1.50      0.00    1.50  H2O
  O2(g)           -39.17    -42.06   -2.89  O2

**For a gas, SI = log10(fugacity). Fugacity = pressure * phi / 1 atm.
  For ideal gases, phi = 1.

-----------------------------------------
Beginning of batch-reaction calculations.
-----------------------------------------

Reaction step 1.

Using solution 1.	
Using gas phase 1.	
Using reaction 1.	

Reaction 1.	

	  0.000e+00 moles of the following reaction have been added:

	                 Relative
	Reactant            moles

	CO2                  1.00000

	                 Relative
	Element             moles
	C                    1.00000
	O                    2.00000

-----------------------------------Gas phase-----------------------------------

Total pressure:  0.03      atmospheres          (Peng-Robinson calculation)
    Gas volume:   1.00e+00 liters
  Molar volume:   7.80e+02 liters/mole
   P * Vm / RT:  0.99951  (Compressibility Factor Z) 

                                                        Moles in gas
                                            ----------------------------------
Component         log P           P    phi     Initial       Final       Delta

CO2(g)           -99.99   0.000e+00  1.000   0.000e+00   0.000e+00   0.000e+00
H2O(g)            -1.50   3.143e-02  1.000   0.000e+00   1.285e-03   1.285e-03

-----------------------------Solution composition------------------------------

	Elements           Molality       Moles

	Pure water     

----------------------------Description of solution----------------------------

                                       pH  =   7.000      Charge balance
                                       pe  =  11.047      Adjusted to redox equilibrium
      Specific Conductance (µS/cm,  25°C)  = 0
                          Density (g/cm³)  =   0.99700
                               Volume (L)  =   1.00299
                        Viscosity (mPa s)  =   0.89004
                        Activity of water  =   1.000
                 Ionic strength (mol/kgw)  =   1.006e-07
                       Mass of water (kg)  =   1.000e+00
                 Total alkalinity (eq/kg)  =   1.217e-09
                         Temperature (°C)  =  25.00
                           Pressure (atm)  =  0.03
                  Electrical balance (eq)  =  -1.217e-09
 Percent error, 100*(Cat-|An|)/(Cat+|An|)  =  -0.60
                               Iterations  =  13
                                  Total H  = 1.110099e+02
                                  Total O  = 5.550493e+01

----------------------------Distribution of species----------------------------

                                               Log       Log       Log    mole V
   Species          Molality    Activity  Molality  Activity     Gamma   cm³/mol

   OH-             1.013e-07   1.012e-07    -6.995    -6.995    -0.000     -4.14
   H+              1.000e-07   1.000e-07    -7.000    -7.000    -0.000      0.00
   H2O             5.551e+01   1.000e+00     1.744    -0.000     0.000     18.07
H(0)          1.141e-39
   H2              5.707e-40   5.707e-40   -39.244   -39.244     0.000     14.99
O(0)          2.665e-14
   O2              1.332e-14   1.332e-14   -13.875   -13.875     0.000     30.40

------------------------------Saturation indices-------------------------------

  Phase               SI** log IAP   log K(298 K,   0 atm)

  H2(g)           -36.14    -39.24   -3.10  H2
  H2O(g)           -1.50     -0.00    1.50  H2O	 Pressure   0.0 atm, phi 1.000
  O2(g)           -10.98    -13.88   -2.89  O2

**For a gas, SI = log10(fugacity). Fugacity = pressure * phi / 1 atm.
  For ideal gases, phi = 1.

Reaction step 2.

Using solution 1.	
Using gas phase 1.	
Using reaction 1.	

Reaction 1.	

	  1.000e+00 moles of the following reaction have been added:

	                 Relative
	Reactant            moles

	CO2                  1.00000

	                 Relative
	Element             moles
	C                    1.00000
	O                    2.00000

-----------------------------------Gas phase-----------------------------------

Total pressure: 13.24      atmospheres          (Peng-Robinson calculation)
    Gas volume:   1.00e+00 liters
  Molar volume:   1.71e+00 liters/mole
   P * Vm / RT:  0.92359  (Compressibility Factor Z) 

                                                        Moles in gas
                                            ----------------------------------
Component         log P           P    phi     Initial       Final       Delta

CO2(g)             1.12   1.320e+01  0.928   0.000e+00   5.844e-01   5.844e-01
H2O(g)            -1.45   3.586e-02  0.878   1.285e-03   1.587e-03   3.017e-04

-----------------------------Solution composition------------------------------

	Elements           Molality       Moles

	C                 4.157e-01   4.156e-01

----------------------------Description of solution----------------------------

                                       pH  =   3.368      Charge balance
                                       pe  =  14.670      Adjusted to redox equilibrium
      Specific Conductance (µS/cm,  25°C)  = 164
                          Density (g/cm³)  =   1.00142
                               Volume (L)  =   1.01682
                        Viscosity (mPa s)  =   0.91845
                        Activity of water  =   0.993
                 Ionic strength (mol/kgw)  =   4.386e-04
                       Mass of water (kg)  =   1.000e+00
                 Total alkalinity (eq/kg)  =   1.216e-09
                       Total CO2 (mol/kg)  =   4.157e-01
                         Temperature (°C)  =  25.00
                           Pressure (atm)  = 13.24
                  Electrical balance (eq)  =  -1.216e-09
 Percent error, 100*(Cat-|An|)/(Cat+|An|)  =  -0.00
                               Iterations  =  36
                                  Total H  = 1.110093e+02
                                  Total O  = 5.633591e+01

----------------------------Distribution of species----------------------------

                                               Log       Log       Log    mole V
   Species          Molality    Activity  Molality  Activity     Gamma   cm³/mol

   H+              4.386e-04   4.285e-04    -3.358    -3.368    -0.010      0.00
   OH-             2.429e-11   2.371e-11   -10.615   -10.625    -0.010     -4.07
   H2O             5.551e+01   9.930e-01     1.744    -0.003     0.000     18.06
C(-4)         0.000e+00
   CH4             0.000e+00   0.000e+00  -120.301  -120.301     0.000     35.47
C(4)          4.157e-01
   CO2             4.098e-01   4.098e-01    -0.387    -0.387     0.000     34.78
   (CO2)2          2.731e-03   2.731e-03    -2.564    -2.564     0.000     68.72
   HCO3-           4.386e-04   4.283e-04    -3.358    -3.368    -0.010     24.58
   CO3-2           5.229e-11   4.756e-11   -10.282   -10.323    -0.041     -4.61
H(0)          1.181e-39
   H2              5.906e-40   5.907e-40   -39.229   -39.229     0.000     15.00
O(0)          2.423e-14
   O2              1.211e-14   1.211e-14   -13.917   -13.917     0.000     30.38

------------------------------Saturation indices-------------------------------

  Phase               SI** log IAP   log K(298 K,  13 atm)

  CH4(g)         -117.49   -120.30   -2.81  CH4
  CO2(g)            1.09     -0.39   -1.48  CO2	 Pressure  13.2 atm, phi 0.928
  H2(g)           -36.13    -39.23   -3.10  H2
  H2O(g)           -1.50     -0.00    1.50  H2O	 Pressure   0.0 atm, phi 0.878
  O2(g)           -11.02    -13.92   -2.90  O2

**For a gas, SI = log10(fugacity). Fugacity = pressure * phi / 1 atm.
  For ideal gases, phi = 1.

Reaction step 3.

Using solution 1.	
Using gas phase 1.	
Using reaction 1.	

Reaction 1.	

	  1.000e+00 moles of the following reaction have been added:

	                 Relative
	Reactant            moles

	CO2                  1.00000

	                 Relative
	Element             moles
	C                    1.00000
	O                    2.00000

-----------------------------------Gas phase-----------------------------------

Total pressure: 25.87      atmospheres          (Peng-Robinson calculation)
    Gas volume:   1.00e+00 liters
  Molar volume:   7.98e-01 liters/mole
   P * Vm / RT:  0.84374  (Compressibility Factor Z) 

                                                        Moles in gas
                                            ----------------------------------
Component         log P           P    phi     Initial       Final       Delta

CO2(g)             1.41   2.583e+01  0.861   5.844e-01   1.251e+00   6.669e-01
H2O(g)            -1.38   4.126e-02  0.766   1.587e-03   1.999e-03   4.118e-04

-----------------------------Solution composition------------------------------

	Elements           Molality       Moles

	C                 7.488e-01   7.488e-01

----------------------------Description of solution----------------------------

                                       pH  =   3.240      Charge balance
                                       pe  =  14.741      Adjusted to redox equilibrium
      Specific Conductance (µS/cm,  25°C)  = 215
                          Density (g/cm³)  =   1.00497
                               Volume (L)  =   1.02781
                        Viscosity (mPa s)  =   0.94109
                        Activity of water  =   0.987
                 Ionic strength (mol/kgw)  =   5.904e-04
                       Mass of water (kg)  =   1.000e+00
                 Total alkalinity (eq/kg)  =   1.216e-09
                       Total CO2 (mol/kg)  =   7.488e-01
                         Temperature (°C)  =  25.00
                           Pressure (atm)  = 25.87
                  Electrical balance (eq)  =  -1.216e-09
 Percent error, 100*(Cat-|An|)/(Cat+|An|)  =  -0.00
                               Iterations  =  30
                                  Total H  = 1.110084e+02
                                  Total O  = 5.700173e+01

----------------------------Distribution of species----------------------------

                                               Log       Log       Log    mole V
   Species          Molality    Activity  Molality  Activity     Gamma   cm³/mol

   H+              5.904e-04   5.749e-04    -3.229    -3.240    -0.012      0.00
   OH-             1.828e-11   1.778e-11   -10.738   -10.750    -0.012     -4.02
   H2O             5.551e+01   9.874e-01     1.744    -0.006     0.000     18.05
C(-4)         0.000e+00
   CH4             0.000e+00   0.000e+00  -119.605  -119.605     0.000     35.49
C(4)          7.488e-01
   CO2             7.308e-01   7.309e-01    -0.136    -0.136     0.000     34.77
   (CO2)2          8.691e-03   8.692e-03    -2.061    -2.061     0.000     68.70
   HCO3-           5.904e-04   5.745e-04    -3.229    -3.241    -0.012     24.62
   CO3-2           5.385e-11   4.827e-11   -10.269   -10.316    -0.047     -4.48
H(0)          1.516e-39
   H2              7.582e-40   7.583e-40   -39.120   -39.120     0.000     15.01
O(0)          1.435e-14
   O2              7.177e-15   7.178e-15   -14.144   -14.144     0.000     30.36

------------------------------Saturation indices-------------------------------

  Phase               SI** log IAP   log K(298 K,  26 atm)

  CH4(g)         -116.79   -119.61   -2.82  CH4
  CO2(g)            1.35     -0.14   -1.48  CO2	 Pressure  25.8 atm, phi 0.861
  H2(g)           -36.01    -39.12   -3.11  H2
  H2O(g)           -1.50     -0.01    1.49  H2O	 Pressure   0.0 atm, phi 0.766
  O2(g)           -11.24    -14.14   -2.91  O2

**For a gas, SI = log10(fugacity). Fugacity = pressure * phi / 1 atm.
  For ideal gases, phi = 1.

Reaction step 4.

Using solution 1.	
Using gas phase 1.	
Using reaction 1.	

Reaction 1.	

	  1.000e+00 moles of the following reaction have been added:

	                 Relative
	Reactant            moles

	CO2                  1.00000

	                 Relative
	Element             moles
	C                    1.00000
	O                    2.00000

-----------------------------------Gas phase-----------------------------------

Total pressure: 37.36      atmospheres          (Peng-Robinson calculation)
    Gas volume:   1.00e+00 liters
  Molar volume:   4.99e-01 liters/mole
   P * Vm / RT:  0.76192  (Compressibility Factor Z) 

                                                        Moles in gas
                                            ----------------------------------
Component         log P           P    phi     Initial       Final       Delta

CO2(g)             1.57   3.731e+01  0.802   1.251e+00   2.002e+00   7.503e-01
H2O(g)            -1.32   4.767e-02  0.666   1.999e-03   2.557e-03   5.587e-04

-----------------------------Solution composition------------------------------

	Elements           Molality       Moles

	C                 9.985e-01   9.984e-01

----------------------------Description of solution----------------------------

                                       pH  =   3.178      Charge balance
                                       pe  =  14.770      Adjusted to redox equilibrium
      Specific Conductance (µS/cm,  25°C)  = 244
                          Density (g/cm³)  =   1.00767
                               Volume (L)  =   1.03594
                        Viscosity (mPa s)  =   0.95801
                        Activity of water  =   0.983
                 Ionic strength (mol/kgw)  =   6.836e-04
                       Mass of water (kg)  =   9.999e-01
                 Total alkalinity (eq/kg)  =   1.216e-09
                       Total CO2 (mol/kg)  =   9.985e-01
                         Temperature (°C)  =  25.00
                           Pressure (atm)  = 37.36
                  Electrical balance (eq)  =  -1.215e-09
 Percent error, 100*(Cat-|An|)/(Cat+|An|)  =  -0.00
                               Iterations  =  28
                                  Total H  = 1.110073e+02
                                  Total O  = 5.750050e+01

----------------------------Distribution of species----------------------------

                                               Log       Log       Log    mole V
   Species          Molality    Activity  Molality  Activity     Gamma   cm³/mol

   H+              6.836e-04   6.645e-04    -3.165    -3.178    -0.012      0.00
   OH-             1.594e-11   1.548e-11   -10.797   -10.810    -0.013     -3.98
   H2O             5.551e+01   9.833e-01     1.744    -0.007     0.000     18.04
C(-4)         0.000e+00
   CH4             0.000e+00   0.000e+00  -119.212  -119.212     0.000     35.51
C(4)          9.985e-01
   CO2             9.673e-01   9.674e-01    -0.014    -0.014     0.000     34.75
   (CO2)2          1.523e-02   1.523e-02    -1.817    -1.817     0.000     68.67
   HCO3-           6.836e-04   6.639e-04    -3.165    -3.178    -0.013     24.66
   CO3-2           5.501e-11   4.892e-11   -10.260   -10.310    -0.051     -4.37
H(0)          1.765e-39
   H2              8.823e-40   8.825e-40   -39.054   -39.054     0.000     15.02
O(0)          1.039e-14
   O2              5.195e-15   5.196e-15   -14.284   -14.284     0.000     30.35

------------------------------Saturation indices-------------------------------

  Phase               SI** log IAP   log K(298 K,  37 atm)

  CH4(g)         -116.39   -119.21   -2.82  CH4
  CO2(g)            1.48     -0.01   -1.49  CO2	 Pressure  37.3 atm, phi 0.802
  H2(g)           -35.95    -39.05   -3.11  H2
  H2O(g)           -1.50     -0.01    1.49  H2O	 Pressure   0.0 atm, phi 0.666
  O2(g)           -11.37    -14.28   -2.91  O2

**For a gas, SI = log10(fugacity). Fugacity = pressure * phi / 1 atm.
  For ideal gases, phi = 1.

Reaction step 5.

Using solution 1.	
Using gas phase 1.	
Using reaction 1.	

Reaction 1.	

	  1.000e+00 moles of the following reaction have been added:

	                 Relative
	Reactant            moles

	CO2                  1.00000

	                 Relative
	Element             moles
	C                    1.00000
	O                    2.00000

-----------------------------------Gas phase-----------------------------------

Total pressure: 47.15      atmospheres          (Peng-Robinson calculation)
    Gas volume:   1.00e+00 liters
  Molar volume:   3.53e-01 liters/mole
   P * Vm / RT:  0.68052  (Compressibility Factor Z) 

                                                        Moles in gas
                                            ----------------------------------
Component         log P           P    phi     Initial       Final       Delta

CO2(g)             1.67   4.709e+01  0.753   2.002e+00   2.829e+00   8.269e-01
H2O(g)            -1.26   5.503e-02  0.579   2.557e-03   3.305e-03   7.480e-04

-----------------------------Solution composition------------------------------

	Elements           Molality       Moles

	C                 1.172e+00   1.171e+00

----------------------------Description of solution----------------------------

                                       pH  =   3.142      Charge balance
                                       pe  =  14.822      Adjusted to redox equilibrium
      Specific Conductance (µS/cm,  25°C)  = 262
                          Density (g/cm³)  =   1.00961
                               Volume (L)  =   1.04149
                        Viscosity (mPa s)  =   0.96970
                        Activity of water  =   0.980
                 Ionic strength (mol/kgw)  =   7.426e-04
                       Mass of water (kg)  =   9.999e-01
                 Total alkalinity (eq/kg)  =   1.216e-09
                       Total CO2 (mol/kg)  =   1.172e+00
                         Temperature (°C)  =  25.00
                           Pressure (atm)  = 47.15
                  Electrical balance (eq)  =  -1.216e-09
 Percent error, 100*(Cat-|An|)/(Cat+|An|)  =  -0.00
                               Iterations  =  22
                                  Total H  = 1.110058e+02
                                  Total O  = 5.784586e+01

----------------------------Distribution of species----------------------------

                                               Log       Log       Log    mole V
   Species          Molality    Activity  Molality  Activity     Gamma   cm³/mol

   H+              7.426e-04   7.209e-04    -3.129    -3.142    -0.013      0.00
   OH-             1.480e-11   1.435e-11   -10.830   -10.843    -0.013     -3.94
   H2O             5.551e+01   9.804e-01     1.744    -0.009     0.000     18.03
C(-4)         0.000e+00
   CH4             0.000e+00   0.000e+00  -119.286  -119.286     0.000     35.52
C(4)          1.172e+00
   CO2             1.129e+00   1.129e+00     0.053     0.053     0.000     34.74
   (CO2)2          2.077e-02   2.077e-02    -1.683    -1.683     0.000     68.65
   HCO3-           7.426e-04   7.203e-04    -3.129    -3.142    -0.013     24.69
   CO3-2           5.590e-11   4.949e-11   -10.253   -10.306    -0.053     -4.27
H(0)          1.620e-39
   H2              8.101e-40   8.103e-40   -39.091   -39.091     0.000     15.02
O(0)          1.214e-14
   O2              6.068e-15   6.069e-15   -14.217   -14.217     0.000     30.33

------------------------------Saturation indices-------------------------------

  Phase               SI** log IAP   log K(298 K,  47 atm)

  CH4(g)         -116.46   -119.29   -2.83  CH4
  CO2(g)            1.55      0.05   -1.50  CO2	 Pressure  47.1 atm, phi 0.753
  H2(g)           -35.98    -39.09   -3.11  H2
  H2O(g)           -1.50     -0.01    1.49  H2O	 Pressure   0.1 atm, phi 0.579
  O2(g)           -11.30    -14.22   -2.92  O2

**For a gas, SI = log10(fugacity). Fugacity = pressure * phi / 1 atm.
  For ideal gases, phi = 1.

Reaction step 6.

Using solution 1.	
Using gas phase 1.	
Using reaction 1.	

Reaction 1.	

	  1.000e+00 moles of the following reaction have been added:

	                 Relative
	Reactant            moles

	CO2                  1.00000

	                 Relative
	Element             moles
	C                    1.00000
	O                    2.00000

-----------------------------------Gas phase-----------------------------------

Total pressure: 54.84      atmospheres          (Peng-Robinson calculation)
    Gas volume:   1.00e+00 liters
  Molar volume:   2.69e-01 liters/mole
   P * Vm / RT:  0.60205  (Compressibility Factor Z) 

                                                        Moles in gas
                                            ----------------------------------
Component         log P           P    phi     Initial       Final       Delta

CO2(g)             1.74   5.478e+01  0.713   2.829e+00   3.719e+00   8.902e-01
H2O(g)            -1.20   6.313e-02  0.507   3.305e-03   4.286e-03   9.805e-04

-----------------------------Solution composition------------------------------

	Elements           Molality       Moles

	C                 1.281e+00   1.281e+00

----------------------------Description of solution----------------------------

                                       pH  =   3.122      Charge balance
                                       pe  =  14.926      Adjusted to redox equilibrium
      Specific Conductance (µS/cm,  25°C)  = 272
                          Density (g/cm³)  =   1.01090
                               Volume (L)  =   1.04493
                        Viscosity (mPa s)  =   0.97710
                        Activity of water  =   0.979
                 Ionic strength (mol/kgw)  =   7.786e-04
                       Mass of water (kg)  =   9.999e-01
                 Total alkalinity (eq/kg)  =   1.216e-09
                       Total CO2 (mol/kg)  =   1.281e+00
                         Temperature (°C)  =  25.00
                           Pressure (atm)  = 54.84
                  Electrical balance (eq)  =  -1.216e-09
 Percent error, 100*(Cat-|An|)/(Cat+|An|)  =  -0.00
                               Iterations  =  26
                                  Total H  = 1.110039e+02
                                  Total O  = 5.806458e+01

----------------------------Distribution of species----------------------------

                                               Log       Log       Log    mole V
   Species          Molality    Activity  Molality  Activity     Gamma   cm³/mol

   H+              7.786e-04   7.554e-04    -3.109    -3.122    -0.013      0.00
   OH-             1.420e-11   1.376e-11   -10.848   -10.861    -0.014     -3.91
   H2O             5.551e+01   9.786e-01     1.744    -0.009     0.000     18.03
C(-4)         0.000e+00
   CH4             0.000e+00   0.000e+00  -119.919  -119.919     0.000     35.53
C(4)          1.281e+00
   CO2             1.231e+00   1.231e+00     0.090     0.090     0.000     34.74
   (CO2)2          2.469e-02   2.470e-02    -1.607    -1.607     0.000     68.63
   HCO3-           7.786e-04   7.547e-04    -3.109    -3.122    -0.014     24.71
   CO3-2           5.656e-11   4.993e-11   -10.248   -10.302    -0.054     -4.20
H(0)          1.098e-39
   H2              5.492e-40   5.493e-40   -39.260   -39.260     0.000     15.03
O(0)          2.611e-14
   O2              1.305e-14   1.306e-14   -13.884   -13.884     0.000     30.32

------------------------------Saturation indices-------------------------------

  Phase               SI** log IAP   log K(298 K,  55 atm)

  CH4(g)         -117.08   -119.92   -2.84  CH4
  CO2(g)            1.59      0.09   -1.50  CO2	 Pressure  54.8 atm, phi 0.713
  H2(g)           -36.15    -39.26   -3.11  H2
  H2O(g)           -1.49     -0.01    1.49  H2O	 Pressure   0.1 atm, phi 0.507
  O2(g)           -10.96    -13.88   -2.92  O2

**For a gas, SI = log10(fugacity). Fugacity = pressure * phi / 1 atm.
  For ideal gases, phi = 1.

Reaction step 7.

Using solution 1.	
Using gas phase 1.	
Using reaction 1.	

Reaction 1.	

	  1.000e+00 moles of the following reaction have been added:

	                 Relative
	Reactant            moles

	CO2                  1.00000

	                 Relative
	Element             moles
	C                    1.00000
	O                    2.00000

-----------------------------------Gas phase-----------------------------------

Total pressure: 60.28      atmospheres          (Peng-Robinson calculation)
    Gas volume:   1.00e+00 liters
  Molar volume:   2.15e-01 liters/mole
   P * Vm / RT:  0.52858  (Compressibility Factor Z) 

                                                        Moles in gas
                                            ----------------------------------
Component         log P           P    phi     Initial       Final       Delta

CO2(g)             1.78   6.021e+01  0.685   3.719e+00   4.656e+00   9.372e-01
H2O(g)            -1.14   7.164e-02  0.448   4.286e-03   5.540e-03   1.254e-03

-----------------------------Solution composition------------------------------

	Elements           Molality       Moles

	C                 1.344e+00   1.344e+00

----------------------------Description of solution----------------------------

                                       pH  =   3.111      Charge balance
                                       pe  =  14.958      Adjusted to redox equilibrium
      Specific Conductance (µS/cm,  25°C)  = 278
                          Density (g/cm³)  =   1.01168
                               Volume (L)  =   1.04683
                        Viscosity (mPa s)  =   0.98132
                        Activity of water  =   0.978
                 Ionic strength (mol/kgw)  =   7.991e-04
                       Mass of water (kg)  =   9.999e-01
                 Total alkalinity (eq/kg)  =   1.216e-09
                       Total CO2 (mol/kg)  =   1.344e+00
                         Temperature (°C)  =  25.00
                           Pressure (atm)  = 60.28
                  Electrical balance (eq)  =  -1.216e-09
 Percent error, 100*(Cat-|An|)/(Cat+|An|)  =  -0.00
                               Iterations  =  33
                                  Total H  = 1.110014e+02
                                  Total O  = 5.818901e+01

----------------------------Distribution of species----------------------------

                                               Log       Log       Log    mole V
   Species          Molality    Activity  Molality  Activity     Gamma   cm³/mol

   H+              7.991e-04   7.750e-04    -3.097    -3.111    -0.013      0.00
   OH-             1.390e-11   1.346e-11   -10.857   -10.871    -0.014     -3.89
   H2O             5.551e+01   9.776e-01     1.744    -0.010     0.000     18.02
C(-4)         0.000e+00
   CH4             0.000e+00   0.000e+00  -120.068  -120.068     0.000     35.54
C(4)          1.344e+00
   CO2             1.289e+00   1.290e+00     0.110     0.110     0.000     34.73
   (CO2)2          2.708e-02   2.709e-02    -1.567    -1.567     0.000     68.62
   HCO3-           7.991e-04   7.743e-04    -3.097    -3.111    -0.014     24.73
   CO3-2           5.700e-11   5.025e-11   -10.244   -10.299    -0.055     -4.15
H(0)          9.949e-40
   H2              4.974e-40   4.975e-40   -39.303   -39.303     0.000     15.03
O(0)          3.158e-14
   O2              1.579e-14   1.580e-14   -13.802   -13.801     0.000     30.31

------------------------------Saturation indices-------------------------------

  Phase               SI** log IAP   log K(298 K,  60 atm)

  CH4(g)         -117.23   -120.07   -2.84  CH4
  CO2(g)            1.62      0.11   -1.50  CO2	 Pressure  60.2 atm, phi 0.685
  H2(g)           -36.19    -39.30   -3.12  H2
  H2O(g)           -1.49     -0.01    1.48  H2O	 Pressure   0.1 atm, phi 0.448
  O2(g)           -10.88    -13.80   -2.92  O2

**For a gas, SI = log10(fugacity). Fugacity = pressure * phi / 1 atm.
  For ideal gases, phi = 1.

Reaction step 8.

Using solution 1.	
Using gas phase 1.	
Using reaction 1.	

Reaction 1.	

	  1.000e+00 moles of the following reaction have been added:

	                 Relative
	Reactant            moles

	CO2                  1.00000

	                 Relative
	Element             moles
	C                    1.00000
	O                    2.00000

-----------------------------------Gas phase-----------------------------------

Total pressure: 63.59      atmospheres          (Peng-Robinson calculation)
    Gas volume:   1.00e+00 liters
  Molar volume:   1.78e-01 liters/mole
   P * Vm / RT:  0.46148  (Compressibility Factor Z) 

                                                        Moles in gas
                                            ----------------------------------
Component         log P           P    phi     Initial       Final       Delta

CO2(g)             1.80   6.351e+01  0.667   4.656e+00   5.625e+00   9.690e-01
H2O(g)            -1.10   8.021e-02  0.401   5.540e-03   7.104e-03   1.565e-03

-----------------------------Solution composition------------------------------

	Elements           Molality       Moles

	C                 1.375e+00   1.375e+00

----------------------------Description of solution----------------------------

                                       pH  =   3.105      Charge balance
                                       pe  =  14.950      Adjusted to redox equilibrium
      Specific Conductance (µS/cm,  25°C)  = 281
                          Density (g/cm³)  =   1.01209
                               Volume (L)  =   1.04773
                        Viscosity (mPa s)  =   0.98340
                        Activity of water  =   0.977
                 Ionic strength (mol/kgw)  =   8.093e-04
                       Mass of water (kg)  =   9.999e-01
                 Total alkalinity (eq/kg)  =   1.216e-09
                       Total CO2 (mol/kg)  =   1.375e+00
                         Temperature (°C)  =  25.00
                           Pressure (atm)  = 63.59
                  Electrical balance (eq)  =  -1.216e-09
 Percent error, 100*(Cat-|An|)/(Cat+|An|)  =  -0.00
                               Iterations  =  37
                                  Total H  = 1.109982e+02
                                  Total O  = 5.824947e+01

----------------------------Distribution of species----------------------------

                                               Log       Log       Log    mole V
   Species          Molality    Activity  Molality  Activity     Gamma   cm³/mol

   H+              8.093e-04   7.848e-04    -3.092    -3.105    -0.013      0.00
   OH-             1.376e-11   1.333e-11   -10.861   -10.875    -0.014     -3.88
   H2O             5.551e+01   9.771e-01     1.744    -0.010     0.000     18.02
C(-4)         0.000e+00
   CH4             0.000e+00   0.000e+00  -119.950  -119.950     0.000     35.54
C(4)          1.375e+00
   CO2             1.318e+00   1.318e+00     0.120     0.120     0.000     34.73
   (CO2)2          2.830e-02   2.831e-02    -1.548    -1.548     0.000     68.62
   HCO3-           8.093e-04   7.841e-04    -3.092    -3.106    -0.014     24.74
   CO3-2           5.726e-11   5.044e-11   -10.242   -10.297    -0.055     -4.12
H(0)          1.058e-39
   H2              5.288e-40   5.289e-40   -39.277   -39.277     0.000     15.03
O(0)          2.783e-14
   O2              1.391e-14   1.392e-14   -13.857   -13.856     0.000     30.31

------------------------------Saturation indices-------------------------------

  Phase               SI** log IAP   log K(298 K,  64 atm)

  CH4(g)         -117.11   -119.95   -2.84  CH4
  CO2(g)            1.63      0.12   -1.51  CO2	 Pressure  63.5 atm, phi 0.667
  H2(g)           -36.16    -39.28   -3.12  H2
  H2O(g)           -1.49     -0.01    1.48  H2O	 Pressure   0.1 atm, phi 0.401
  O2(g)           -10.93    -13.86   -2.93  O2

**For a gas, SI = log10(fugacity). Fugacity = pressure * phi / 1 atm.
  For ideal gases, phi = 1.

Reaction step 9.

Using solution 1.	
Using gas phase 1.	
Using reaction 1.	

Reaction 1.	

	  1.000e+00 moles of the following reaction have been added:

	                 Relative
	Reactant            moles

	CO2                  1.00000

	                 Relative
	Element             moles
	C                    1.00000
	O                    2.00000

-----------------------------------Gas phase-----------------------------------

Total pressure: 65.05      atmospheres          (Peng-Robinson calculation)
    Gas volume:   1.00e+00 liters
  Molar volume:   1.51e-01 liters/mole
   P * Vm / RT:  0.40146  (Compressibility Factor Z) 

                                                        Moles in gas
                                            ----------------------------------
Component         log P           P    phi     Initial       Final       Delta

CO2(g)             1.81   6.496e+01  0.658   5.625e+00   6.614e+00   9.888e-01
H2O(g)            -1.05   8.853e-02  0.363   7.104e-03   9.013e-03   1.909e-03

-----------------------------Solution composition------------------------------

	Elements           Molality       Moles

	C                 1.387e+00   1.386e+00

----------------------------Description of solution----------------------------

                                       pH  =   3.103      Charge balance
                                       pe  =  14.974      Adjusted to redox equilibrium
      Specific Conductance (µS/cm,  25°C)  = 282
                          Density (g/cm³)  =   1.01225
                               Volume (L)  =   1.04801
                        Viscosity (mPa s)  =   0.98415
                        Activity of water  =   0.977
                 Ionic strength (mol/kgw)  =   8.132e-04
                       Mass of water (kg)  =   9.998e-01
                 Total alkalinity (eq/kg)  =   1.216e-09
                       Total CO2 (mol/kg)  =   1.387e+00
                         Temperature (°C)  =  25.00
                           Pressure (atm)  = 65.05
                  Electrical balance (eq)  =  -1.216e-09
 Percent error, 100*(Cat-|An|)/(Cat+|An|)  =  -0.00
                               Iterations  =  40
                                  Total H  = 1.109944e+02
                                  Total O  = 5.827004e+01

----------------------------Distribution of species----------------------------

                                               Log       Log       Log    mole V
   Species          Molality    Activity  Molality  Activity     Gamma   cm³/mol

   H+              8.132e-04   7.885e-04    -3.090    -3.103    -0.013      0.00
   OH-             1.372e-11   1.328e-11   -10.863   -10.877    -0.014     -3.87
   H2O             5.551e+01   9.769e-01     1.744    -0.010     0.000     18.02
C(-4)         0.000e+00
   CH4             0.000e+00   0.000e+00  -120.124  -120.124     0.000     35.54
C(4)          1.387e+00
   CO2             1.328e+00   1.329e+00     0.123     0.123     0.000     34.72
   (CO2)2          2.875e-02   2.876e-02    -1.541    -1.541     0.000     68.61
   HCO3-           8.132e-04   7.877e-04    -3.090    -3.104    -0.014     24.75
   CO3-2           5.738e-11   5.053e-11   -10.241   -10.296    -0.055     -4.11
H(0)          9.545e-40
   H2              4.772e-40   4.773e-40   -39.321   -39.321     0.000     15.03
O(0)          3.410e-14
   O2              1.705e-14   1.705e-14   -13.768   -13.768     0.000     30.31

------------------------------Saturation indices-------------------------------

  Phase               SI** log IAP   log K(298 K,  65 atm)

  CH4(g)         -117.28   -120.12   -2.84  CH4
  CO2(g)            1.63      0.12   -1.51  CO2	 Pressure  65.0 atm, phi 0.658
  H2(g)           -36.20    -39.32   -3.12  H2
  H2O(g)           -1.49     -0.01    1.48  H2O	 Pressure   0.1 atm, phi 0.363
  O2(g)           -10.84    -13.77   -2.93  O2

**For a gas, SI = log10(fugacity). Fugacity = pressure * phi / 1 atm.
  For ideal gases, phi = 1.

Reaction step 10.

Using solution 1.	
Using gas phase 1.	
Using reaction 1.	

Reaction 1.	

	  1.000e+00 moles of the following reaction have been added:

	                 Relative
	Reactant            moles

	CO2                  1.00000

	                 Relative
	Element             moles
	C                    1.00000
	O                    2.00000

-----------------------------------Gas phase-----------------------------------

Total pressure: 65.20      atmospheres          (Peng-Robinson calculation)
    Gas volume:   1.00e+00 liters
  Molar volume:   1.31e-01 liters/mole
   P * Vm / RT:  0.34954  (Compressibility Factor Z) 

                                                        Moles in gas
                                            ----------------------------------
Component         log P           P    phi     Initial       Final       Delta

CO2(g)             1.81   6.510e+01  0.657   6.614e+00   7.613e+00   9.991e-01
H2O(g)            -1.02   9.654e-02  0.333   9.013e-03   1.129e-02   2.275e-03

-----------------------------Solution composition------------------------------

	Elements           Molality       Moles

	C                 1.388e+00   1.387e+00

----------------------------Description of solution----------------------------

                                       pH  =   3.103      Charge balance
                                       pe  =  14.981      Adjusted to redox equilibrium
      Specific Conductance (µS/cm,  25°C)  = 282
                          Density (g/cm³)  =   1.01227
                               Volume (L)  =   1.04800
                        Viscosity (mPa s)  =   0.98422
                        Activity of water  =   0.977
                 Ionic strength (mol/kgw)  =   8.135e-04
                       Mass of water (kg)  =   9.998e-01
                 Total alkalinity (eq/kg)  =   1.216e-09
                       Total CO2 (mol/kg)  =   1.388e+00
                         Temperature (°C)  =  25.00
                           Pressure (atm)  = 65.20
                  Electrical balance (eq)  =  -1.216e-09
 Percent error, 100*(Cat-|An|)/(Cat+|An|)  =  -0.00
                               Iterations  =  39
                                  Total H  = 1.109899e+02
                                  Total O  = 5.826963e+01

----------------------------Distribution of species----------------------------

                                               Log       Log       Log    mole V
   Species          Molality    Activity  Molality  Activity     Gamma   cm³/mol

   H+              8.135e-04   7.888e-04    -3.090    -3.103    -0.013      0.00
   OH-             1.371e-11   1.328e-11   -10.863   -10.877    -0.014     -3.87
   H2O             5.551e+01   9.769e-01     1.744    -0.010     0.000     18.02
C(-4)         0.000e+00
   CH4             0.000e+00   0.000e+00  -120.181  -120.181     0.000     35.54
C(4)          1.388e+00
   CO2             1.329e+00   1.329e+00     0.124     0.124     0.000     34.72
   (CO2)2          2.879e-02   2.880e-02    -1.541    -1.541     0.000     68.61
   HCO3-           8.135e-04   7.881e-04    -3.090    -3.103    -0.014     24.75
   CO3-2           5.739e-11   5.054e-11   -10.241   -10.296    -0.055     -4.11
H(0)          9.235e-40
   H2              4.618e-40   4.619e-40   -39.336   -39.335     0.000     15.03
O(0)          3.642e-14
   O2              1.821e-14   1.821e-14   -13.740   -13.740     0.000     30.31

------------------------------Saturation indices-------------------------------

  Phase               SI** log IAP   log K(298 K,  65 atm)

  CH4(g)         -117.34   -120.18   -2.84  CH4
  CO2(g)            1.63      0.12   -1.51  CO2	 Pressure  65.1 atm, phi 0.657
  H2(g)           -36.22    -39.34   -3.12  H2
  H2O(g)           -1.49     -0.01    1.48  H2O	 Pressure   0.1 atm, phi 0.333
  O2(g)           -10.81    -13.74   -2.93  O2

**For a gas, SI = log10(fugacity). Fugacity = pressure * phi / 1 atm.
  For ideal gases, phi = 1.

Reaction step 11.

Using solution 1.	
Using gas phase 1.	
Using reaction 1.	

Reaction 1.	

	  1.000e+00 moles of the following reaction have been added:

	                 Relative
	Reactant            moles

	CO2                  1.00000

	                 Relative
	Element             moles
	C                    1.00000
	O                    2.00000

-----------------------------------Gas phase-----------------------------------

Total pressure: 65.19      atmospheres          (Peng-Robinson calculation)
    Gas volume:   1.00e+00 liters
  Molar volume:   1.16e-01 liters/mole
   P * Vm / RT:  0.30883  (Compressibility Factor Z) 

                                                        Moles in gas
                                            ----------------------------------
Component         log P           P    phi     Initial       Final       Delta

CO2(g)             1.81   6.508e+01  0.657   7.613e+00   8.613e+00   1.001e+00
H2O(g)            -0.98   1.052e-01  0.306   1.129e-02   1.392e-02   2.632e-03

-----------------------------Solution composition------------------------------

	Elements           Molality       Moles

	C                 1.387e+00   1.387e+00

----------------------------Description of solution----------------------------

                                       pH  =   3.103      Charge balance
                                       pe  =  14.982      Adjusted to redox equilibrium
      Specific Conductance (µS/cm,  25°C)  = 282
                          Density (g/cm³)  =   1.01226
                               Volume (L)  =   1.04793
                        Viscosity (mPa s)  =   0.98418
                        Activity of water  =   0.977
                 Ionic strength (mol/kgw)  =   8.133e-04
                       Mass of water (kg)  =   9.997e-01
                 Total alkalinity (eq/kg)  =   1.216e-09
                       Total CO2 (mol/kg)  =   1.387e+00
                         Temperature (°C)  =  25.00
                           Pressure (atm)  = 65.19
                  Electrical balance (eq)  =  -1.216e-09
 Percent error, 100*(Cat-|An|)/(Cat+|An|)  =  -0.00
                               Iterations  =  43
                                  Total H  = 1.109846e+02
                                  Total O  = 5.826574e+01

----------------------------Distribution of species----------------------------

                                               Log       Log       Log    mole V
   Species          Molality    Activity  Molality  Activity     Gamma   cm³/mol

   H+              8.133e-04   7.887e-04    -3.090    -3.103    -0.013      0.00
   OH-             1.371e-11   1.328e-11   -10.863   -10.877    -0.014     -3.87
   H2O             5.551e+01   9.769e-01     1.744    -0.010     0.000     18.02
C(-4)         0.000e+00
   CH4             0.000e+00   0.000e+00  -120.187  -120.187     0.000     35.54
C(4)          1.387e+00
   CO2             1.329e+00   1.329e+00     0.123     0.123     0.000     34.72
   (CO2)2          2.877e-02   2.877e-02    -1.541    -1.541     0.000     68.61
   HCO3-           8.133e-04   7.879e-04    -3.090    -3.104    -0.014     24.75
   CO3-2           5.739e-11   5.054e-11   -10.241   -10.296    -0.055     -4.11
H(0)          9.204e-40
   H2              4.602e-40   4.603e-40   -39.337   -39.337     0.000     15.03
O(0)          3.666e-14
   O2              1.833e-14   1.834e-14   -13.737   -13.737     0.000     30.31

------------------------------Saturation indices-------------------------------

  Phase               SI** log IAP   log K(298 K,  65 atm)

  CH4(g)         -117.34   -120.19   -2.84  CH4
  CO2(g)            1.63      0.12   -1.51  CO2	 Pressure  65.1 atm, phi 0.657
  H2(g)           -36.22    -39.34   -3.12  H2
  H2O(g)           -1.49     -0.01    1.48  H2O	 Pressure   0.1 atm, phi 0.306
  O2(g)           -10.81    -13.74   -2.93  O2

**For a gas, SI = log10(fugacity). Fugacity = pressure * phi / 1 atm.
  For ideal gases, phi = 1.

Reaction step 12.

Using solution 1.	
Using gas phase 1.	
Using reaction 1.	

Reaction 1.	

	  1.000e+00 moles of the following reaction have been added:

	                 Relative
	Reactant            moles

	CO2                  1.00000

	                 Relative
	Element             moles
	C                    1.00000
	O                    2.00000

-----------------------------------Gas phase-----------------------------------

Total pressure: 65.17      atmospheres          (Peng-Robinson calculation)
    Gas volume:   1.00e+00 liters
  Molar volume:   1.04e-01 liters/mole
   P * Vm / RT:  0.27656  (Compressibility Factor Z) 

                                                        Moles in gas
                                            ----------------------------------
Component         log P           P    phi     Initial       Final       Delta

CO2(g)             1.81   6.506e+01  0.657   8.613e+00   9.615e+00   1.001e+00
H2O(g)            -0.94   1.146e-01  0.281   1.392e-02   1.694e-02   3.022e-03

-----------------------------Solution composition------------------------------

	Elements           Molality       Moles

	C                 1.386e+00   1.385e+00

----------------------------Description of solution----------------------------

                                       pH  =   3.103      Charge balance
                                       pe  =  14.988      Adjusted to redox equilibrium
      Specific Conductance (µS/cm,  25°C)  = 282
                          Density (g/cm³)  =   1.01225
                               Volume (L)  =   1.04783
                        Viscosity (mPa s)  =   0.98408
                        Activity of water  =   0.977
                 Ionic strength (mol/kgw)  =   8.129e-04
                       Mass of water (kg)  =   9.997e-01
                 Total alkalinity (eq/kg)  =   1.216e-09
                       Total CO2 (mol/kg)  =   1.386e+00
                         Temperature (°C)  =  25.00
                           Pressure (atm)  = 65.17
                  Electrical balance (eq)  =  -1.216e-09
 Percent error, 100*(Cat-|An|)/(Cat+|An|)  =  -0.00
                               Iterations  =  46
                                  Total H  = 1.109785e+02
                                  Total O  = 5.825983e+01

----------------------------Distribution of species----------------------------

                                               Log       Log       Log    mole V
   Species          Molality    Activity  Molality  Activity     Gamma   cm³/mol

   H+              8.129e-04   7.883e-04    -3.090    -3.103    -0.013      0.00
   OH-             1.372e-11   1.328e-11   -10.863   -10.877    -0.014     -3.87
   H2O             5.551e+01   9.769e-01     1.744    -0.010     0.000     18.02
C(-4)         0.000e+00
   CH4             0.000e+00   0.000e+00  -120.242  -120.242     0.000     35.54
C(4)          1.386e+00
   CO2             1.327e+00   1.328e+00     0.123     0.123     0.000     34.72
   (CO2)2          2.871e-02   2.872e-02    -1.542    -1.542     0.000     68.61
   HCO3-           8.129e-04   7.875e-04    -3.090    -3.104    -0.014     24.75
   CO3-2           5.738e-11   5.053e-11   -10.241   -10.296    -0.055     -4.11
H(0)          8.921e-40
   H2              4.461e-40   4.461e-40   -39.351   -39.351     0.000     15.03
O(0)          3.903e-14
   O2              1.952e-14   1.952e-14   -13.710   -13.710     0.000     30.31

------------------------------Saturation indices-------------------------------

  Phase               SI** log IAP   log K(298 K,  65 atm)

  CH4(g)         -117.40   -120.24   -2.84  CH4
  CO2(g)            1.63      0.12   -1.51  CO2	 Pressure  65.1 atm, phi 0.657
  H2(g)           -36.23    -39.35   -3.12  H2
  H2O(g)           -1.49     -0.01    1.48  H2O	 Pressure   0.1 atm, phi 0.281
  O2(g)           -10.78    -13.71   -2.93  O2

**For a gas, SI = log10(fugacity). Fugacity = pressure * phi / 1 atm.
  For ideal gases, phi = 1.

Reaction step 13.

Using solution 1.	
Using gas phase 1.	
Using reaction 1.	

Reaction 1.	

	  1.000e+00 moles of the following reaction have been added:

	                 Relative
	Reactant            moles

	CO2                  1.00000

	                 Relative
	Element             moles
	C                    1.00000
	O                    2.00000

-----------------------------------Gas phase-----------------------------------

Total pressure: 65.15      atmospheres          (Peng-Robinson calculation)
    Gas volume:   1.00e+00 liters
  Molar volume:   9.40e-02 liters/mole
   P * Vm / RT:  0.25035  (Compressibility Factor Z) 

                                                        Moles in gas
                                            ----------------------------------
Component         log P           P    phi     Initial       Final       Delta

CO2(g)             1.81   6.503e+01  0.656   9.615e+00   1.062e+01   1.002e+00
H2O(g)            -0.90   1.249e-01  0.258   1.694e-02   2.039e-02   3.453e-03

-----------------------------Solution composition------------------------------

	Elements           Molality       Moles

	C                 1.384e+00   1.383e+00

----------------------------Description of solution----------------------------

                                       pH  =   3.104      Charge balance
                                       pe  =  14.960      Adjusted to redox equilibrium
      Specific Conductance (µS/cm,  25°C)  = 282
                          Density (g/cm³)  =   1.01223
                               Volume (L)  =   1.04769
                        Viscosity (mPa s)  =   0.98395
                        Activity of water  =   0.977
                 Ionic strength (mol/kgw)  =   8.124e-04
                       Mass of water (kg)  =   9.996e-01
                 Total alkalinity (eq/kg)  =   1.216e-09
                       Total CO2 (mol/kg)  =   1.384e+00
                         Temperature (°C)  =  25.00
                           Pressure (atm)  = 65.15
                  Electrical balance (eq)  =  -1.216e-09
 Percent error, 100*(Cat-|An|)/(Cat+|An|)  =  -0.00
                               Iterations  =  46
                                  Total H  = 1.109716e+02
                                  Total O  = 5.825213e+01

----------------------------Distribution of species----------------------------

                                               Log       Log       Log    mole V
   Species          Molality    Activity  Molality  Activity     Gamma   cm³/mol

   H+              8.124e-04   7.878e-04    -3.090    -3.104    -0.013      0.00
   OH-             1.373e-11   1.329e-11   -10.862   -10.876    -0.014     -3.87
   H2O             5.551e+01   9.770e-01     1.744    -0.010     0.000     18.02
C(-4)         0.000e+00
   CH4             0.000e+00   0.000e+00  -120.020  -120.020     0.000     35.54
C(4)          1.384e+00
   CO2             1.326e+00   1.326e+00     0.122     0.122     0.000     34.72
   (CO2)2          2.863e-02   2.864e-02    -1.543    -1.543     0.000     68.61
   HCO3-           8.124e-04   7.870e-04    -3.090    -3.104    -0.014     24.75
   CO3-2           5.738e-11   5.053e-11   -10.241   -10.296    -0.055     -4.11
H(0)          1.014e-39
   H2              5.072e-40   5.073e-40   -39.295   -39.295     0.000     15.03
O(0)          3.020e-14
   O2              1.510e-14   1.510e-14   -13.821   -13.821     0.000     30.31

------------------------------Saturation indices-------------------------------

  Phase               SI** log IAP   log K(298 K,  65 atm)

  CH4(g)         -117.18   -120.02   -2.84  CH4
  CO2(g)            1.63      0.12   -1.51  CO2	 Pressure  65.0 atm, phi 0.656
  H2(g)           -36.18    -39.29   -3.12  H2
  H2O(g)           -1.49     -0.01    1.48  H2O	 Pressure   0.1 atm, phi 0.258
  O2(g)           -10.89    -13.82   -2.93  O2

**For a gas, SI = log10(fugacity). Fugacity = pressure * phi / 1 atm.
  For ideal gases, phi = 1.

Reaction step 14.

Using solution 1.	
Using gas phase 1.	
Using reaction 1.	

Reaction 1.	

	  1.000e+00 moles of the following reaction have been added:

	                 Relative
	Reactant            moles

	CO2                  1.00000

	                 Relative
	Element             moles
	C                    1.00000
	O                    2.00000

-----------------------------------Gas phase-----------------------------------

Total pressure: 65.14      atmospheres          (Peng-Robinson calculation)
    Gas volume:   1.00e+00 liters
  Molar volume:   8.59e-02 liters/mole
   P * Vm / RT:  0.22865  (Compressibility Factor Z) 

                                                        Moles in gas
                                            ----------------------------------
Component         log P           P    phi     Initial       Final       Delta

CO2(g)             1.81   6.500e+01  0.655   1.062e+01   1.162e+01   1.002e+00
H2O(g)            -0.87   1.360e-01  0.237   2.039e-02   2.432e-02   3.923e-03

-----------------------------Solution composition------------------------------

	Elements           Molality       Moles

	C                 1.381e+00   1.381e+00

----------------------------Description of solution----------------------------

                                       pH  =   3.104      Charge balance
                                       pe  =  14.971      Adjusted to redox equilibrium
      Specific Conductance (µS/cm,  25°C)  = 282
                          Density (g/cm³)  =   1.01221
                               Volume (L)  =   1.04754
                        Viscosity (mPa s)  =   0.98378
                        Activity of water  =   0.977
                 Ionic strength (mol/kgw)  =   8.117e-04
                       Mass of water (kg)  =   9.995e-01
                 Total alkalinity (eq/kg)  =   1.216e-09
                       Total CO2 (mol/kg)  =   1.381e+00
                         Temperature (°C)  =  25.00
                           Pressure (atm)  = 65.14
                  Electrical balance (eq)  =  -1.216e-09
 Percent error, 100*(Cat-|An|)/(Cat+|An|)  =  -0.00
                               Iterations  =  45
                                  Total H  = 1.109638e+02
                                  Total O  = 5.824328e+01

----------------------------Distribution of species----------------------------

                                               Log       Log       Log    mole V
   Species          Molality    Activity  Molality  Activity     Gamma   cm³/mol

   H+              8.117e-04   7.871e-04    -3.091    -3.104    -0.013      0.00
   OH-             1.374e-11   1.331e-11   -10.862   -10.876    -0.014     -3.87
   H2O             5.551e+01   9.770e-01     1.744    -0.010     0.000     18.02
C(-4)         0.000e+00
   CH4             0.000e+00   0.000e+00  -120.106  -120.106     0.000     35.54
C(4)          1.381e+00
   CO2             1.323e+00   1.324e+00     0.122     0.122     0.000     34.72
   (CO2)2          2.854e-02   2.854e-02    -1.545    -1.544     0.000     68.61
   HCO3-           8.117e-04   7.863e-04    -3.091    -3.104    -0.014     24.75
   CO3-2           5.738e-11   5.053e-11   -10.241   -10.296    -0.055     -4.11
H(0)          9.656e-40
   H2              4.828e-40   4.829e-40   -39.316   -39.316     0.000     15.03
O(0)          3.332e-14
   O2              1.666e-14   1.666e-14   -13.778   -13.778     0.000     30.31

------------------------------Saturation indices-------------------------------

  Phase               SI** log IAP   log K(298 K,  65 atm)

  CH4(g)         -117.26   -120.11   -2.84  CH4
  CO2(g)            1.63      0.12   -1.51  CO2	 Pressure  65.0 atm, phi 0.655
  H2(g)           -36.20    -39.32   -3.12  H2
  H2O(g)           -1.49     -0.01    1.48  H2O	 Pressure   0.1 atm, phi 0.237
  O2(g)           -10.85    -13.78   -2.93  O2

**For a gas, SI = log10(fugacity). Fugacity = pressure * phi / 1 atm.
  For ideal gases, phi = 1.

Reaction step 15.

Using solution 1.	
Using gas phase 1.	
Using reaction 1.	

Reaction 1.	

	  1.000e+00 moles of the following reaction have been added:

	                 Relative
	Reactant            moles

	CO2                  1.00000

	                 Relative
	Element             moles
	C                    1.00000
	O                    2.00000

-----------------------------------Gas phase-----------------------------------

Total pressure: 65.12      atmospheres          (Peng-Robinson calculation)
    Gas volume:   1.00e+00 liters
  Molar volume:   7.90e-02 liters/mole
   P * Vm / RT:  0.21039  (Compressibility Factor Z) 

                                                        Moles in gas
                                            ----------------------------------
Component         log P           P    phi     Initial       Final       Delta

CO2(g)             1.81   6.497e+01  0.655   1.162e+01   1.262e+01   1.002e+00
H2O(g)            -0.83   1.480e-01  0.217   2.432e-02   2.875e-02   4.431e-03

-----------------------------Solution composition------------------------------

	Elements           Molality       Moles

	C                 1.379e+00   1.378e+00

----------------------------Description of solution----------------------------

                                       pH  =   3.104      Charge balance
                                       pe  =  14.967      Adjusted to redox equilibrium
      Specific Conductance (µS/cm,  25°C)  = 281
                          Density (g/cm³)  =   1.01219
                               Volume (L)  =   1.04737
                        Viscosity (mPa s)  =   0.98363
                        Activity of water  =   0.977
                 Ionic strength (mol/kgw)  =   8.111e-04
                       Mass of water (kg)  =   9.995e-01
                 Total alkalinity (eq/kg)  =   1.216e-09
                       Total CO2 (mol/kg)  =   1.379e+00
                         Temperature (°C)  =  25.00
                           Pressure (atm)  = 65.12
                  Electrical balance (eq)  =  -1.216e-09
 Percent error, 100*(Cat-|An|)/(Cat+|An|)  =  -0.00
                               Iterations  =  48
                                  Total H  = 1.109549e+02
                                  Total O  = 5.823405e+01

----------------------------Distribution of species----------------------------

                                               Log       Log       Log    mole V
   Species          Molality    Activity  Molality  Activity     Gamma   cm³/mol

   H+              8.111e-04   7.865e-04    -3.091    -3.104    -0.013      0.00
   OH-             1.375e-11   1.332e-11   -10.862   -10.876    -0.014     -3.87
   H2O             5.551e+01   9.770e-01     1.744    -0.010     0.000     18.02
C(-4)         0.000e+00
   CH4             0.000e+00   0.000e+00  -120.080  -120.080     0.000     35.54
C(4)          1.379e+00
   CO2             1.321e+00   1.321e+00     0.121     0.121     0.000     34.72
   (CO2)2          2.845e-02   2.845e-02    -1.546    -1.546     0.000     68.61
   HCO3-           8.111e-04   7.857e-04    -3.091    -3.105    -0.014     24.75
   CO3-2           5.737e-11   5.053e-11   -10.241   -10.296    -0.055     -4.11
H(0)          9.807e-40
   H2              4.903e-40   4.904e-40   -39.309   -39.309     0.000     15.03
O(0)          3.231e-14
   O2              1.615e-14   1.616e-14   -13.792   -13.792     0.000     30.31

------------------------------Saturation indices-------------------------------

  Phase               SI** log IAP   log K(298 K,  65 atm)

  CH4(g)         -117.24   -120.08   -2.84  CH4
  CO2(g)            1.63      0.12   -1.51  CO2	 Pressure  65.0 atm, phi 0.655
  H2(g)           -36.19    -39.31   -3.12  H2
  H2O(g)           -1.49     -0.01    1.48  H2O	 Pressure   0.1 atm, phi 0.217
  O2(g)           -10.86    -13.79   -2.93  O2

**For a gas, SI = log10(fugacity). Fugacity = pressure * phi / 1 atm.
  For ideal gases, phi = 1.

Reaction step 16.

Using solution 1.	
Using gas phase 1.	
Using reaction 1.	

Reaction 1.	

	  1.000e+00 moles of the following reaction have been added:

	                 Relative
	Reactant            moles

	CO2                  1.00000

	                 Relative
	Element             moles
	C                    1.00000
	O                    2.00000

-----------------------------------Gas phase-----------------------------------

Total pressure: 65.10      atmospheres          (Peng-Robinson calculation)
    Gas volume:   1.00e+00 liters
  Molar volume:   7.32e-02 liters/mole
   P * Vm / RT:  0.19481  (Compressibility Factor Z) 

                                                        Moles in gas
                                            ----------------------------------
Component         log P           P    phi     Initial       Final       Delta

CO2(g)             1.81   6.493e+01  0.654   1.262e+01   1.362e+01   1.002e+00
H2O(g)            -0.79   1.607e-01  0.200   2.875e-02   3.372e-02   4.975e-03

-----------------------------Solution composition------------------------------

	Elements           Molality       Moles

	C                 1.377e+00   1.376e+00

----------------------------Description of solution----------------------------

                                       pH  =   3.105      Charge balance
                                       pe  =  14.978      Adjusted to redox equilibrium
      Specific Conductance (µS/cm,  25°C)  = 281
                          Density (g/cm³)  =   1.01217
                               Volume (L)  =   1.04722
                        Viscosity (mPa s)  =   0.98351
                        Activity of water  =   0.977
                 Ionic strength (mol/kgw)  =   8.105e-04
                       Mass of water (kg)  =   9.994e-01
                 Total alkalinity (eq/kg)  =   1.217e-09
                       Total CO2 (mol/kg)  =   1.377e+00
                         Temperature (°C)  =  25.00
                           Pressure (atm)  = 65.10
                  Electrical balance (eq)  =  -1.216e-09
 Percent error, 100*(Cat-|An|)/(Cat+|An|)  =  -0.00
                               Iterations  =  46
                                  Total H  = 1.109450e+02
                                  Total O  = 5.822524e+01

----------------------------Distribution of species----------------------------

                                               Log       Log       Log    mole V
   Species          Molality    Activity  Molality  Activity     Gamma   cm³/mol

   H+              8.105e-04   7.860e-04    -3.091    -3.105    -0.013      0.00
   OH-             1.376e-11   1.332e-11   -10.861   -10.875    -0.014     -3.87
   H2O             5.551e+01   9.771e-01     1.744    -0.010     0.000     18.02
C(-4)         0.000e+00
   CH4             0.000e+00   0.000e+00  -120.172  -120.172     0.000     35.54
C(4)          1.377e+00
   CO2             1.320e+00   1.320e+00     0.120     0.121     0.000     34.72
   (CO2)2          2.838e-02   2.838e-02    -1.547    -1.547     0.000     68.61
   HCO3-           8.105e-04   7.852e-04    -3.091    -3.105    -0.014     24.75
   CO3-2           5.737e-11   5.053e-11   -10.241   -10.296    -0.055     -4.11
H(0)          9.304e-40
   H2              4.652e-40   4.653e-40   -39.332   -39.332     0.000     15.03
O(0)          3.590e-14
   O2              1.795e-14   1.795e-14   -13.746   -13.746     0.000     30.31

------------------------------Saturation indices-------------------------------

  Phase               SI** log IAP   log K(298 K,  65 atm)

  CH4(g)         -117.33   -120.17   -2.84  CH4
  CO2(g)            1.63      0.12   -1.51  CO2	 Pressure  64.9 atm, phi 0.654
  H2(g)           -36.22    -39.33   -3.12  H2
  H2O(g)           -1.49     -0.01    1.48  H2O	 Pressure   0.2 atm, phi 0.200
  O2(g)           -10.82    -13.75   -2.93  O2

**For a gas, SI = log10(fugacity). Fugacity = pressure * phi / 1 atm.
  For ideal gases, phi = 1.

Reaction step 17.

Using solution 1.	
Using gas phase 1.	
Using reaction 1.	

Reaction 1.	

	  1.000e+00 moles of the following reaction have been added:

	                 Relative
	Reactant            moles

	CO2                  1.00000

	                 Relative
	Element             moles
	C                    1.00000
	O                    2.00000

-----------------------------------Gas phase-----------------------------------

Total pressure: 65.07      atmospheres          (Peng-Robinson calculation)
    Gas volume:   1.00e+00 liters
  Molar volume:   6.82e-02 liters/mole
   P * Vm / RT:  0.18138  (Compressibility Factor Z) 

                                                        Moles in gas
                                            ----------------------------------
Component         log P           P    phi     Initial       Final       Delta

CO2(g)             1.81   6.490e+01  0.654   1.362e+01   1.462e+01   1.001e+00
H2O(g)            -0.76   1.743e-01  0.185   3.372e-02   3.928e-02   5.551e-03

-----------------------------Solution composition------------------------------

	Elements           Molality       Moles

	C                 1.376e+00   1.375e+00

----------------------------Description of solution----------------------------

                                       pH  =   3.105      Charge balance
                                       pe  =  14.979      Adjusted to redox equilibrium
      Specific Conductance (µS/cm,  25°C)  = 281
                          Density (g/cm³)  =   1.01217
                               Volume (L)  =   1.04708
                        Viscosity (mPa s)  =   0.98345
                        Activity of water  =   0.977
                 Ionic strength (mol/kgw)  =   8.103e-04
                       Mass of water (kg)  =   9.993e-01
                 Total alkalinity (eq/kg)  =   1.217e-09
                       Total CO2 (mol/kg)  =   1.376e+00
                         Temperature (°C)  =  25.00
                           Pressure (atm)  = 65.07
                  Electrical balance (eq)  =  -1.216e-09
 Percent error, 100*(Cat-|An|)/(Cat+|An|)  =  -0.00
                               Iterations  =  32
                                  Total H  = 1.109339e+02
                                  Total O  = 5.821768e+01

----------------------------Distribution of species----------------------------

                                               Log       Log       Log    mole V
   Species          Molality    Activity  Molality  Activity     Gamma   cm³/mol

   H+              8.103e-04   7.858e-04    -3.091    -3.105    -0.013      0.00
   OH-             1.377e-11   1.333e-11   -10.861   -10.875    -0.014     -3.87
   H2O             5.551e+01   9.771e-01     1.744    -0.010     0.000     18.02
C(-4)         0.000e+00
   CH4             0.000e+00   0.000e+00  -120.185  -120.185     0.000     35.54
C(4)          1.376e+00
   CO2             1.319e+00   1.319e+00     0.120     0.120     0.000     34.72
   (CO2)2          2.834e-02   2.835e-02    -1.548    -1.547     0.000     68.61
   HCO3-           8.103e-04   7.850e-04    -3.091    -3.105    -0.014     24.75
   CO3-2           5.737e-11   5.053e-11   -10.241   -10.296    -0.055     -4.11
H(0)          9.237e-40
   H2              4.618e-40   4.619e-40   -39.336   -39.335     0.000     15.03
O(0)          3.643e-14
   O2              1.821e-14   1.822e-14   -13.740   -13.740     0.000     30.31

------------------------------Saturation indices-------------------------------

  Phase               SI** log IAP   log K(298 K,  65 atm)

  CH4(g)         -117.34   -120.18   -2.84  CH4
  CO2(g)            1.63      0.12   -1.51  CO2	 Pressure  64.9 atm, phi 0.654
  H2(g)           -36.22    -39.34   -3.12  H2
  H2O(g)           -1.49     -0.01    1.48  H2O	 Pressure   0.2 atm, phi 0.185
  O2(g)           -10.81    -13.74   -2.93  O2

**For a gas, SI = log10(fugacity). Fugacity = pressure * phi / 1 atm.
  For ideal gases, phi = 1.

Reaction step 18.

Using solution 1.	
Using gas phase 1.	
Using reaction 1.	

Reaction 1.	

	  1.000e+00 moles of the following reaction have been added:

	                 Relative
	Reactant            moles

	CO2                  1.00000

	                 Relative
	Element             moles
	C                    1.00000
	O                    2.00000

-----------------------------------Gas phase-----------------------------------

Total pressure: 70.49      atmospheres          (Peng-Robinson calculation)
    Gas volume:   1.00e+00 liters
  Molar volume:   6.39e-02 liters/mole
   P * Vm / RT:  0.18398  (Compressibility Factor Z) 

                                                        Moles in gas
                                            ----------------------------------
Component         log P           P    phi     Initial       Final       Delta

CO2(g)             1.85   7.029e+01  0.613   1.462e+01   1.561e+01   9.903e-01
H2O(g)            -0.69   2.029e-01  0.159   3.928e-02   4.508e-02   5.803e-03

-----------------------------Solution composition------------------------------

	Elements           Molality       Moles

	C                 1.386e+00   1.385e+00

----------------------------Description of solution----------------------------

                                       pH  =   3.102      Charge balance
                                       pe  =  14.987      Adjusted to redox equilibrium
      Specific Conductance (µS/cm,  25°C)  = 283
                          Density (g/cm³)  =   1.01249
                               Volume (L)  =   1.04707
                        Viscosity (mPa s)  =   0.98406
                        Activity of water  =   0.977
                 Ionic strength (mol/kgw)  =   8.156e-04
                       Mass of water (kg)  =   9.992e-01
                 Total alkalinity (eq/kg)  =   1.217e-09
                       Total CO2 (mol/kg)  =   1.386e+00
                         Temperature (°C)  =  25.00
                           Pressure (atm)  = 70.49
                  Electrical balance (eq)  =  -1.216e-09
 Percent error, 100*(Cat-|An|)/(Cat+|An|)  =  -0.00
                               Iterations  =  38
                                  Total H  = 1.109223e+02
                                  Total O  = 5.823127e+01

----------------------------Distribution of species----------------------------

                                               Log       Log       Log    mole V
   Species          Molality    Activity  Molality  Activity     Gamma   cm³/mol

   H+              8.156e-04   7.908e-04    -3.089    -3.102    -0.013      0.00
   OH-             1.374e-11   1.330e-11   -10.862   -10.876    -0.014     -3.85
   H2O             5.551e+01   9.769e-01     1.744    -0.010     0.000     18.01
C(-4)         0.000e+00
   CH4             0.000e+00   0.000e+00  -120.222  -120.222     0.000     35.55
C(4)          1.386e+00
   CO2             1.328e+00   1.328e+00     0.123     0.123     0.000     34.72
   (CO2)2          2.874e-02   2.874e-02    -1.542    -1.541     0.000     68.60
   HCO3-           8.156e-04   7.900e-04    -3.089    -3.102    -0.014     24.76
   CO3-2           5.775e-11   5.085e-11   -10.238   -10.294    -0.055     -4.06
H(0)          9.014e-40
   H2              4.507e-40   4.508e-40   -39.346   -39.346     0.000     15.04
O(0)          3.803e-14
   O2              1.901e-14   1.902e-14   -13.721   -13.721     0.000     30.30

------------------------------Saturation indices-------------------------------

  Phase               SI** log IAP   log K(298 K,  70 atm)

  CH4(g)         -117.38   -120.22   -2.85  CH4
  CO2(g)            1.63      0.12   -1.51  CO2	 Pressure  70.3 atm, phi 0.613
  H2(g)           -36.23    -39.35   -3.12  H2
  H2O(g)           -1.49     -0.01    1.48  H2O	 Pressure   0.2 atm, phi 0.159
  O2(g)           -10.79    -13.72   -2.93  O2

**For a gas, SI = log10(fugacity). Fugacity = pressure * phi / 1 atm.
  For ideal gases, phi = 1.

Reaction step 19.

Using solution 1.	
Using gas phase 1.	
Using reaction 1.	

Reaction 1.	

	  1.000e+00 moles of the following reaction have been added:

	                 Relative
	Reactant            moles

	CO2                  1.00000

	                 Relative
	Element             moles
	C                    1.00000
	O                    2.00000

-----------------------------------Gas phase-----------------------------------

Total pressure: 80.29      atmospheres          (Peng-Robinson calculation)
    Gas volume:   1.00e+00 liters
  Molar volume:   6.01e-02 liters/mole
   P * Vm / RT:  0.19709  (Compressibility Factor Z) 

                                                        Moles in gas
                                            ----------------------------------
Component         log P           P    phi     Initial       Final       Delta

CO2(g)             1.90   8.004e+01  0.552   1.561e+01   1.660e+01   9.843e-01
H2O(g)            -0.61   2.469e-01  0.132   4.508e-02   5.120e-02   6.124e-03

-----------------------------Solution composition------------------------------

	Elements           Molality       Moles

	C                 1.402e+00   1.401e+00

----------------------------Description of solution----------------------------

                                       pH  =   3.097      Charge balance
                                       pe  =  14.942      Adjusted to redox equilibrium
      Specific Conductance (µS/cm,  25°C)  = 286
                          Density (g/cm³)  =   1.01306
                               Volume (L)  =   1.04705
                        Viscosity (mPa s)  =   0.98503
                        Activity of water  =   0.977
                 Ionic strength (mol/kgw)  =   8.246e-04
                       Mass of water (kg)  =   9.991e-01
                 Total alkalinity (eq/kg)  =   1.217e-09
                       Total CO2 (mol/kg)  =   1.402e+00
                         Temperature (°C)  =  25.00
                           Pressure (atm)  = 80.29
                  Electrical balance (eq)  =  -1.215e-09
 Percent error, 100*(Cat-|An|)/(Cat+|An|)  =  -0.00
                               Iterations  =  44
                                  Total H  = 1.109100e+02
                                  Total O  = 5.825660e+01

----------------------------Distribution of species----------------------------

                                               Log       Log       Log    mole V
   Species          Molality    Activity  Molality  Activity     Gamma   cm³/mol

   H+              8.246e-04   7.994e-04    -3.084    -3.097    -0.013      0.00
   OH-             1.371e-11   1.327e-11   -10.863   -10.877    -0.014     -3.82
   H2O             5.551e+01   9.766e-01     1.744    -0.010     0.000     18.01
C(-4)         0.000e+00
   CH4             0.000e+00   0.000e+00  -119.825  -119.824     0.000     35.56
C(4)          1.402e+00
   CO2             1.343e+00   1.343e+00     0.128     0.128     0.000     34.71
   (CO2)2          2.938e-02   2.939e-02    -1.532    -1.532     0.000     68.58
   HCO3-           8.246e-04   7.987e-04    -3.084    -3.098    -0.014     24.79
   CO3-2           5.844e-11   5.143e-11   -10.233   -10.289    -0.056     -3.97
H(0)          1.127e-39
   H2              5.635e-40   5.636e-40   -39.249   -39.249     0.000     15.04
O(0)          2.408e-14
   O2              1.204e-14   1.204e-14   -13.919   -13.919     0.000     30.29

------------------------------Saturation indices-------------------------------

  Phase               SI** log IAP   log K(298 K,  80 atm)

  CH4(g)         -116.97   -119.82   -2.85  CH4
  CO2(g)            1.64      0.13   -1.52  CO2	 Pressure  80.0 atm, phi 0.552
  H2(g)           -36.13    -39.25   -3.12  H2
  H2O(g)           -1.49     -0.01    1.48  H2O	 Pressure   0.2 atm, phi 0.132
  O2(g)           -10.98    -13.92   -2.93  O2

**For a gas, SI = log10(fugacity). Fugacity = pressure * phi / 1 atm.
  For ideal gases, phi = 1.

Reaction step 20.

Using solution 1.	
Using gas phase 1.	
Using reaction 1.	

Reaction 1.	

	  1.000e+00 moles of the following reaction have been added:

	                 Relative
	Reactant            moles

	CO2                  1.00000

	                 Relative
	Element             moles
	C                    1.00000
	O                    2.00000

-----------------------------------Gas phase-----------------------------------

Total pressure: 94.57      atmospheres          (Peng-Robinson calculation)
    Gas volume:   1.00e+00 liters
  Molar volume:   5.67e-02 liters/mole
[...]

-----------------------------------Gas phase-----------------------------------

Total pressure: 887.26      atmospheres          (Peng-Robinson calculation)
    Gas volume:   1.00e+00 liters
  Molar volume:   4.72e-02 liters/mole
   P * Vm / RT:  1.20619  (Compressibility Factor Z) 

                                                        Moles in gas
                                            ----------------------------------
Component         log P           P    phi     Initial       Final       Delta

CO2(g)             2.92   8.407e+02  0.652   1.915e+01   2.007e+01   9.188e-01
H2O(g)             1.67   4.659e+01  0.153   1.086e+00   1.112e+00   2.608e-02

-----------------------------Solution composition------------------------------

	Elements           Molality       Moles

	C                 1.968e+00   1.928e+00

----------------------------Description of solution----------------------------

                                       pH  =   3.091      Charge balance
                                       pe  =   8.892      Adjusted to redox equilibrium
      Specific Conductance (µS/cm, 150°C)  = 600
                          Density (g/cm³)  =   0.97037
                               Volume (L)  =   1.09734
                        Viscosity (mPa s)  =   0.20836
                        Activity of water  =   0.969
                 Ionic strength (mol/kgw)  =   8.426e-04
                       Mass of water (kg)  =   9.799e-01
                 Total alkalinity (eq/kg)  =   1.231e-09
                       Total CO2 (mol/kg)  =   1.968e+00
                         Temperature (°C)  = 150.00
                           Pressure (atm)  = 887.26
                  Electrical balance (eq)  =  -1.207e-09
 Percent error, 100*(Cat-|An|)/(Cat+|An|)  =  -0.00
                               Iterations  =  33 (134 overall)
                                  Total H  = 1.087879e+02
                                  Total O  = 5.825045e+01

----------------------------Distribution of species----------------------------

                                               Log       Log       Log    mole V
   Species          Molality    Activity  Molality  Activity     Gamma   cm³/mol

   H+              8.426e-04   8.102e-04    -3.074    -3.091    -0.017      0.00
   OH-             6.720e-09   6.448e-09    -8.173    -8.191    -0.018    -13.66
   H2O             5.551e+01   9.691e-01     1.744    -0.014     0.000     18.75
C(-4)         0.000e+00
   CH4             0.000e+00   0.000e+00   -85.375   -85.375     0.000     43.58
C(4)          1.968e+00
   CO2             1.663e+00   1.663e+00     0.221     0.221     0.000     40.16
   (CO2)2          1.518e-01   1.519e-01    -0.819    -0.819     0.000     79.48
   HCO3-           8.426e-04   8.091e-04    -3.074    -3.092    -0.018     24.75
   CO3-2           1.056e-10   8.981e-11    -9.976   -10.047    -0.070     -6.01
H(0)          3.972e-28
   H2              1.986e-28   1.986e-28   -27.702   -27.702     0.000     18.43
O(0)          2.994e-11
   O2              1.497e-11   1.497e-11   -10.825   -10.825     0.000     32.85

------------------------------Saturation indices-------------------------------

  Phase               SI** log IAP   log K(423 K, 887 atm)

  CH4(g)          -82.00    -85.37   -3.38  CH4
  CO2(g)            2.74      0.22   -2.52  CO2	 Pressure 840.7 atm, phi 0.652
  H2(g)           -24.55    -27.70   -3.16  H2
  H2O(g)            0.85     -0.01   -0.87  H2O	 Pressure  46.6 atm, phi 0.153
  O2(g)            -7.42    -10.82   -3.40  O2

**For a gas, SI = log10(fugacity). Fugacity = pressure * phi / 1 atm.
  For ideal gases, phi = 1.

Reaction step 24.

Using solution 1.	
Using gas phase 1.	
Using temperature 5.	
Using reaction 1.	

Reaction 1.	

	  1.000e+00 moles of the following reaction have been added:

	                 Relative
	Reactant            moles

	CO2                  1.00000

	                 Relative
	Element             moles
	C                    1.00000
	O                    2.00000

-----------------------------------Gas phase-----------------------------------

Total pressure: 1003.53      atmospheres          (Peng-Robinson calculation)
    Gas volume:   1.00e+00 liters
  Molar volume:   4.52e-02 liters/mole
   P * Vm / RT:  1.30679  (Compressibility Factor Z) 

                                                        Moles in gas
                                            ----------------------------------
Component         log P           P    phi     Initial       Final       Delta

CO2(g)             2.98   9.523e+02  0.675   2.007e+01   2.099e+01   9.140e-01
H2O(g)             1.71   5.127e+01  0.147   1.112e+00   1.130e+00   1.754e-02

-----------------------------Solution composition------------------------------

	Elements           Molality       Moles

	C                 2.056e+00   2.014e+00

----------------------------Description of solution----------------------------

                                       pH  =   3.065      Charge balance
                                       pe  =   8.917      Adjusted to redox equilibrium
      Specific Conductance (µS/cm, 150°C)  = 632
                          Density (g/cm³)  =   0.97615
                               Volume (L)  =   1.09440
                        Viscosity (mPa s)  =   0.21131
                        Activity of water  =   0.968
                 Ionic strength (mol/kgw)  =   8.957e-04
                       Mass of water (kg)  =   9.796e-01
                 Total alkalinity (eq/kg)  =   1.234e-09
                       Total CO2 (mol/kg)  =   2.056e+00
                         Temperature (°C)  = 150.00
                           Pressure (atm)  = 1003.53
                  Electrical balance (eq)  =  -1.208e-09
 Percent error, 100*(Cat-|An|)/(Cat+|An|)  =  -0.00
                               Iterations  =  33 (134 overall)
                                  Total H  = 1.087528e+02
                                  Total O  = 5.840484e+01

----------------------------Distribution of species----------------------------

                                               Log       Log       Log    mole V
   Species          Molality    Activity  Molality  Activity     Gamma   cm³/mol

   H+              8.957e-04   8.606e-04    -3.048    -3.065    -0.017      0.00
   OH-             7.068e-09   6.776e-09    -8.151    -8.169    -0.018    -13.85
   H2O             5.551e+01   9.678e-01     1.744    -0.014     0.000     18.66
C(-4)         0.000e+00
   CH4             0.000e+00   0.000e+00   -85.403   -85.403     0.000     43.29
C(4)          2.056e+00
   CO2             1.727e+00   1.727e+00     0.237     0.237     0.000     39.73
   (CO2)2          1.642e-01   1.642e-01    -0.785    -0.785     0.000     78.63
   HCO3-           8.956e-04   8.594e-04    -3.048    -3.066    -0.018     25.27
   CO3-2           1.148e-10   9.732e-11    -9.940   -10.012    -0.072     -4.70
H(0)          3.781e-28
   H2              1.891e-28   1.891e-28   -27.723   -27.723     0.000     18.25
O(0)          2.996e-11
   O2              1.498e-11   1.498e-11   -10.825   -10.824     0.000     32.56

------------------------------Saturation indices-------------------------------

  Phase               SI** log IAP   log K(423 K, 1004 atm)

  CH4(g)          -81.97    -85.40   -3.44  CH4
  CO2(g)            2.81      0.24   -2.57  CO2	 Pressure 952.3 atm, phi 0.675
  H2(g)           -24.54    -27.72   -3.18  H2
  H2O(g)            0.88     -0.01   -0.89  H2O	 Pressure  51.3 atm, phi 0.147
  O2(g)            -7.38    -10.82   -3.45  O2

**For a gas, SI = log10(fugacity). Fugacity = pressure * phi / 1 atm.
  For ideal gases, phi = 1.

Reaction step 25.

Using solution 1.	
Using gas phase 1.	
Using temperature 5.	
Using reaction 1.	

Reaction 1.	

	  1.000e+00 moles of the following reaction have been added:

	                 Relative
	Reactant            moles

	CO2                  1.00000

	                 Relative
	Element             moles
	C                    1.00000
	O                    2.00000

-----------------------------------Gas phase-----------------------------------

Total pressure: 1137.91      atmospheres          (Peng-Robinson calculation)
    Gas volume:   1.00e+00 liters
  Molar volume:   4.34e-02 liters/mole
   P * Vm / RT:  1.42281  (Compressibility Factor Z) 

                                                        Moles in gas
                                            ----------------------------------
Component         log P           P    phi     Initial       Final       Delta

CO2(g)             3.03   1.082e+03  0.709   2.099e+01   2.189e+01   9.086e-01
H2O(g)             1.75   5.622e+01  0.144   1.130e+00   1.138e+00   8.045e-03

-----------------------------Solution composition------------------------------

	Elements           Molality       Moles

	C                 2.150e+00   2.106e+00

----------------------------Description of solution----------------------------

                                       pH  =   3.037      Charge balance
                                       pe  =   8.942      Adjusted to redox equilibrium
      Specific Conductance (µS/cm, 150°C)  = 668
                          Density (g/cm³)  =   0.98258
                               Volume (L)  =   1.09118
                        Viscosity (mPa s)  =   0.21467
                        Activity of water  =   0.966
                 Ionic strength (mol/kgw)  =   9.557e-04
                       Mass of water (kg)  =   9.795e-01
                 Total alkalinity (eq/kg)  =   1.237e-09
                       Total CO2 (mol/kg)  =   2.150e+00
                         Temperature (°C)  = 150.00
                           Pressure (atm)  = 1137.91
                  Electrical balance (eq)  =  -1.212e-09
 Percent error, 100*(Cat-|An|)/(Cat+|An|)  =  -0.00
                               Iterations  =  31 (132 overall)
                                  Total H  = 1.087367e+02
                                  Total O  = 5.857960e+01

----------------------------Distribution of species----------------------------

                                               Log       Log       Log    mole V
   Species          Molality    Activity  Molality  Activity     Gamma   cm³/mol

   H+              9.557e-04   9.175e-04    -3.020    -3.037    -0.018      0.00
   OH-             7.540e-09   7.221e-09    -8.123    -8.141    -0.019    -14.05
   H2O             5.551e+01   9.665e-01     1.744    -0.015     0.000     18.55
C(-4)         0.000e+00
   CH4             0.000e+00   0.000e+00   -85.437   -85.437     0.000     42.98
C(4)          2.150e+00
   CO2             1.794e+00   1.794e+00     0.254     0.254     0.000     39.28
   (CO2)2          1.776e-01   1.777e-01    -0.750    -0.750     0.000     77.73
   HCO3-           9.557e-04   9.161e-04    -3.020    -3.038    -0.018     25.84
   CO3-2           1.259e-10   1.063e-10    -9.900    -9.973    -0.073     -3.31
H(0)          3.578e-28
   H2              1.789e-28   1.789e-28   -27.747   -27.747     0.000     18.07
O(0)          2.996e-11
   O2              1.498e-11   1.498e-11   -10.825   -10.824     0.000     32.26

------------------------------Saturation indices-------------------------------

  Phase               SI** log IAP   log K(423 K, 1138 atm)

  CH4(g)          -81.93    -85.44   -3.51  CH4
  CO2(g)            2.88      0.25   -2.63  CO2	 Pressure 1081.7 atm, phi 0.709
  H2(g)           -24.54    -27.75   -3.21  H2
  H2O(g)            0.91     -0.01   -0.92  H2O	 Pressure  56.2 atm, phi 0.144
  O2(g)            -7.33    -10.82   -3.50  O2

**For a gas, SI = log10(fugacity). Fugacity = pressure * phi / 1 atm.
  For ideal gases, phi = 1.

Reaction step 26.

Using solution 1.	
Using gas phase 1.	
Using temperature 5.	
Using reaction 1.	

Reaction 1.	

	  1.000e+00 moles of the following reaction have been added:

	                 Relative
	Reactant            moles

	CO2                  1.00000

	                 Relative
	Element             moles
	C                    1.00000
	O                    2.00000

-----------------------------------Gas phase-----------------------------------

Total pressure: 1293.45      atmospheres          (Peng-Robinson calculation)
    Gas volume:   1.00e+00 liters
  Molar volume:   4.18e-02 liters/mole
   P * Vm / RT:  1.55646  (Compressibility Factor Z) 

                                                        Moles in gas
                                            ----------------------------------
Component         log P           P    phi     Initial       Final       Delta

CO2(g)             3.09   1.232e+03  0.758   2.189e+01   2.280e+01   9.024e-01
H2O(g)             1.79   6.137e+01  0.142   1.138e+00   1.136e+00  -2.280e-03

-----------------------------Solution composition------------------------------

	Elements           Molality       Moles

	C                 2.249e+00   2.203e+00

----------------------------Description of solution----------------------------

                                       pH  =   3.008      Charge balance
                                       pe  =   8.969      Adjusted to redox equilibrium
      Specific Conductance (µS/cm, 150°C)  = 709
                          Density (g/cm³)  =   0.98972
                               Volume (L)  =   1.08769
                        Viscosity (mPa s)  =   0.21849
                        Activity of water  =   0.965
                 Ionic strength (mol/kgw)  =   1.024e-03
                       Mass of water (kg)  =   9.795e-01
                 Total alkalinity (eq/kg)  =   1.238e-09
                       Total CO2 (mol/kg)  =   2.249e+00
                         Temperature (°C)  = 150.00
                           Pressure (atm)  = 1293.45
                  Electrical balance (eq)  =  -1.213e-09
 Percent error, 100*(Cat-|An|)/(Cat+|An|)  =  -0.00
                               Iterations  =  40 (141 overall)
                                  Total H  = 1.087413e+02
                                  Total O  = 5.877698e+01

----------------------------Distribution of species----------------------------

                                               Log       Log       Log    mole V
   Species          Molality    Activity  Molality  Activity     Gamma   cm³/mol

   H+              1.024e-03   9.821e-04    -2.990    -3.008    -0.018      0.00
   OH-             8.182e-09   7.829e-09    -8.087    -8.106    -0.019    -14.28
   H2O             5.551e+01   9.650e-01     1.744    -0.015     0.000     18.44
C(-4)         0.000e+00
   CH4             0.000e+00   0.000e+00   -85.478   -85.478     0.000     42.66
C(4)          2.249e+00
   CO2             1.863e+00   1.864e+00     0.270     0.270     0.000     38.81
   (CO2)2          1.925e-01   1.925e-01    -0.716    -0.716     0.000     76.78
   HCO3-           1.024e-03   9.805e-04    -2.990    -3.009    -0.019     26.43
   CO3-2           1.394e-10   1.172e-10    -9.856    -9.931    -0.075     -1.83
H(0)          3.361e-28
   H2              1.681e-28   1.681e-28   -27.775   -27.774     0.000     17.87
O(0)          2.995e-11
   O2              1.497e-11   1.498e-11   -10.825   -10.825     0.000     31.93

------------------------------Saturation indices-------------------------------

  Phase               SI** log IAP   log K(423 K, 1293 atm)

  CH4(g)          -81.89    -85.48   -3.58  CH4
  CO2(g)            2.97      0.27   -2.70  CO2	 Pressure 1232.1 atm, phi 0.758
  H2(g)           -24.53    -27.77   -3.24  H2
  H2O(g)            0.94     -0.02   -0.96  H2O	 Pressure  61.4 atm, phi 0.142
  O2(g)            -7.27    -10.82   -3.56  O2

**For a gas, SI = log10(fugacity). Fugacity = pressure * phi / 1 atm.
  For ideal gases, phi = 1.

Reaction step 27.

Using solution 1.	
Using gas phase 1.	
Using temperature 5.	
Using reaction 1.	

Reaction 1.	

	  1.000e+00 moles of the following reaction have been added:

	                 Relative
	Reactant            moles

	CO2                  1.00000

	                 Relative
	Element             moles
	C                    1.00000
	O                    2.00000

-----------------------------------Gas phase-----------------------------------

Total pressure: 1473.81      atmospheres          (Peng-Robinson calculation)
    Gas volume:   1.00e+00 liters
  Molar volume:   4.03e-02 liters/mole
   P * Vm / RT:  1.71045  (Compressibility Factor Z) 

                                                        Moles in gas
                                            ----------------------------------
Component         log P           P    phi     Initial       Final       Delta

CO2(g)             3.15   1.407e+03  0.826   2.280e+01   2.369e+01   8.955e-01
H2O(g)             1.82   6.666e+01  0.143   1.136e+00   1.122e+00  -1.325e-02

-----------------------------Solution composition------------------------------

	Elements           Molality       Moles

	C                 2.355e+00   2.308e+00

----------------------------Description of solution----------------------------

                                       pH  =   2.977      Charge balance
                                       pe  =   8.998      Adjusted to redox equilibrium
      Specific Conductance (µS/cm, 150°C)  = 754
                          Density (g/cm³)  =   0.99760
                               Volume (L)  =   1.08395
                        Viscosity (mPa s)  =   0.22283
                        Activity of water  =   0.963
                 Ionic strength (mol/kgw)  =   1.101e-03
                       Mass of water (kg)  =   9.798e-01
                 Total alkalinity (eq/kg)  =   1.238e-09
                       Total CO2 (mol/kg)  =   2.355e+00
                         Temperature (°C)  = 150.00
                           Pressure (atm)  = 1473.81
                  Electrical balance (eq)  =  -1.213e-09
 Percent error, 100*(Cat-|An|)/(Cat+|An|)  =  -0.00
                               Iterations  =  45 (146 overall)
                                  Total H  = 1.087678e+02
                                  Total O  = 5.899924e+01

----------------------------Distribution of species----------------------------

                                               Log       Log       Log    mole V
   Species          Molality    Activity  Molality  Activity     Gamma   cm³/mol

   H+              1.101e-03   1.056e-03    -2.958    -2.977    -0.019      0.00
   OH-             9.067e-09   8.667e-09    -8.043    -8.062    -0.020    -14.54
   H2O             5.551e+01   9.635e-01     1.744    -0.016     0.000     18.31
C(-4)         0.000e+00
   CH4             0.000e+00   0.000e+00   -85.527   -85.526     0.000     42.32
C(4)          2.355e+00
   CO2             1.937e+00   1.937e+00     0.287     0.287     0.000     38.31
   (CO2)2          2.088e-01   2.088e-01    -0.680    -0.680     0.000     75.78
   HCO3-           1.101e-03   1.054e-03    -2.958    -2.977    -0.019     27.05
   CO3-2           1.558e-10   1.305e-10    -9.807    -9.884    -0.077     -0.28
H(0)          3.131e-28
   H2              1.566e-28   1.566e-28   -27.805   -27.805     0.000     17.67
O(0)          2.994e-11
   O2              1.497e-11   1.497e-11   -10.825   -10.825     0.000     31.59

------------------------------Saturation indices-------------------------------

  Phase               SI** log IAP   log K(423 K, 1474 atm)

  CH4(g)          -81.85    -85.53   -3.67  CH4
  CO2(g)            3.07      0.29   -2.78  CO2	 Pressure 1407.2 atm, phi 0.826
  H2(g)           -24.53    -27.81   -3.28  H2
  H2O(g)            0.98     -0.02   -1.00  H2O	 Pressure  66.7 atm, phi 0.143
  O2(g)            -7.20    -10.82   -3.62  O2

**For a gas, SI = log10(fugacity). Fugacity = pressure * phi / 1 atm.
  For ideal gases, phi = 1.

------------------
End of simulation.
------------------

------------------------------------
Reading input data for simulation 6.
------------------------------------

