   Input file: ../examples/ex5
  Output file: ex5.out
Database file: ../database/phreeqc.dat

------------------
Reading data base.
------------------

	SOLUTION_MASTER_SPECIES
	SOLUTION_SPECIES
	PHASES
	GAS_BINARY_PARAMETERS
	EXCHANGE_MASTER_SPECIES
	EXCHANGE_SPECIES
	SURFACE_MASTER_SPECIES
	SURFACE_SPECIES
	MEAN_GAMMAS
	RATES
	END
------------------------------------
Reading input data for simulation 1.
------------------------------------

	TITLE Example 5.--Add oxygen, equilibrate with pyrite, calcite, and goethite.
	SOLUTION 1  PURE WATER
	        pH      7.0
	        temp    25.0
	EQUILIBRIUM_PHASES 1
	        Pyrite          0.0
	        Goethite        0.0
	        Calcite         0.0
	        CO2(g)         -3.5
	        Gypsum          0.0     0.0
	REACTION 1
	        O2      1.0
	        NaCl    0.5
	        0.0     0.001   0.005   0.01   0.03   0.05
	SELECTED_OUTPUT
	        file   ex5.sel
	        totals  Cl
	        si     Gypsum
	        equilibrium_phases  pyrite goethite calcite CO2(g) gypsum
	USER_GRAPH Example 5
	        -headings Pyrite Goethite Calcite CO2(g) Gypsum SI_Gypsum
	        -chart_title "Pyrite Oxidation"
	        -axis_titles "O2 added, in millimoles" "Millimoles dissolved"              "Saturation index"
	  10 x = RXN * 1e3
	  20 PLOT_XY x, 1e3 * (10 - EQUI("Pyrite")), symbol = Plus
	  30 PLOT_XY x, 1e3 * (10 - EQUI("Goethite")), symbol = Plus
	  40 PLOT_XY x, 1e3 * (10 - EQUI("Calcite")), symbol = Plus
	  50 PLOT_XY x, 1e3 * (10 - EQUI("CO2(g)")), symbol = Plus
	  60 PLOT_XY x, 1e3 * (-EQUI("Gypsum")), symbol = Plus, color = Magenta
	  70 PLOT_XY x, SI("Gypsum"), y-axis = 2, line_width = 2, symbol = Circle,   	symbol_size = 8, color = Magenta
	END
-----
TITLE
-----

 Example 5.--Add oxygen, equilibrate with pyrite, calcite, and goethite.

-------------------------------------------
Beginning of initial solution calculations.
-------------------------------------------

Initial solution 1.	PURE WATER

-----------------------------Solution composition------------------------------

	Elements           Molality       Moles

	Pure water     

----------------------------Description of solution----------------------------

                                       pH  =   7.000    
                                       pe  =   4.000    
      Specific Conductance (µS/cm,  25°C)  = 0
                          Density (g/cm³)  =   0.99704
                               Volume (L)  =   1.00297
                        Viscosity (mPa s)  =   0.89002
                        Activity of water  =   1.000
                 Ionic strength (mol/kgw)  =   1.007e-07
                       Mass of water (kg)  =   1.000e+00
                 Total alkalinity (eq/kg)  =   1.217e-09
                         Temperature (°C)  =  25.00
                  Electrical balance (eq)  =  -1.217e-09
 Percent error, 100*(Cat-|An|)/(Cat+|An|)  =  -0.60
                               Iterations  =   0
                                  Total H  = 1.110124e+02
                                  Total O  = 5.550622e+01

----------------------------Distribution of species----------------------------

                                               Log       Log       Log    mole V
   Species          Molality    Activity  Molality  Activity     Gamma   cm³/mol

   OH-             1.013e-07   1.012e-07    -6.995    -6.995    -0.000     -4.14
   H+              1.001e-07   1.000e-07    -7.000    -7.000    -0.000      0.00
   H2O             5.551e+01   1.000e+00     1.744     0.000     0.000     18.07
H(0)          1.416e-25
   H2              7.079e-26   7.079e-26   -25.150   -25.150     0.000     14.99
O(0)          0.000e+00
   O2              0.000e+00   0.000e+00   -42.063   -42.063     0.000     30.40

------------------------------Saturation indices-------------------------------

  Phase               SI** log IAP   log K(298 K,   1 atm)

  H2(g)           -22.05    -25.15   -3.10  H2
  H2O(g)           -1.50      0.00    1.50  H2O
  O2(g)           -39.17    -42.06   -2.89  O2

**For a gas, SI = log10(fugacity). Fugacity = pressure * phi / 1 atm.
  For ideal gases, phi = 1.

-----------------------------------------
Beginning of batch-reaction calculations.
-----------------------------------------

Reaction step 1.

Using solution 1.	PURE WATER
Using pure phase assemblage 1.	
Using reaction 1.	

Reaction 1.	

	  0.000e+00 moles of the following reaction have been added:

	                 Relative
	Reactant            moles

	NaCl                 0.50000
	O2                   1.00000

	                 Relative
	Element             moles
	Cl                   0.50000
	Na                   0.50000
	O                    2.00000

-------------------------------Phase assemblage--------------------------------

                                                      Moles in assemblage
Phase               SI  log IAP  log K(T, P)   Initial       Final       Delta

CO2(g)           -3.50    -4.97     -1.47    1.000e+01   1.000e+01  -4.958e-04
Calcite           0.00    -8.45     -8.45    1.000e+01   9.999e+00  -5.032e-04
Goethite          0.00    -1.00     -1.00    1.000e+01   1.000e+01   1.222e-08
Gypsum           -6.14   -10.68     -4.55    0.000e+00           0   0.000e+00
Pyrite            0.00   -18.48    -18.48    1.000e+01   1.000e+01  -3.202e-08

-----------------------------Solution composition------------------------------

	Elements           Molality       Moles

	C                 9.990e-04   9.990e-04
	Ca                5.032e-04   5.032e-04
	Fe                1.979e-08   1.979e-08
	S                 6.403e-08   6.403e-08

----------------------------Description of solution----------------------------

                                       pH  =   8.289      Charge balance
                                       pe  =  -4.954      Adjusted to redox equilibrium
      Specific Conductance (µS/cm,  25°C)  = 99
                          Density (g/cm³)  =   0.99711
                               Volume (L)  =   1.00297
                        Viscosity (mPa s)  =   0.89086
                        Activity of water  =   1.000
                 Ionic strength (mol/kgw)  =   1.502e-03
                       Mass of water (kg)  =   1.000e+00
                 Total alkalinity (eq/kg)  =   1.006e-03
                       Total CO2 (mol/kg)  =   9.989e-04
                         Temperature (°C)  =  25.00
                  Electrical balance (eq)  =  -1.217e-09
 Percent error, 100*(Cat-|An|)/(Cat+|An|)  =  -0.00
                               Iterations  =  14
                                  Total H  = 1.110124e+02
                                  Total O  = 5.550872e+01

----------------------------Distribution of species----------------------------

                                               Log       Log       Log    mole V
   Species          Molality    Activity  Molality  Activity     Gamma   cm³/mol

   OH-             2.058e-06   1.970e-06    -5.687    -5.706    -0.019     -4.10
   H+              5.351e-09   5.137e-09    -8.272    -8.289    -0.018      0.00
   H2O             5.551e+01   1.000e+00     1.744    -0.000     0.000     18.07
C(-4)         5.495e-08
   CH4             5.495e-08   5.497e-08    -7.260    -7.260     0.000     35.46
C(4)          9.989e-04
   HCO3-           9.721e-04   9.316e-04    -3.012    -3.031    -0.018     24.57
   CO2             1.076e-05   1.076e-05    -4.968    -4.968     0.000     34.79
   CO3-2           1.008e-05   8.504e-06    -4.996    -5.070    -0.074     -4.64
   CaCO3           5.987e-06   5.989e-06    -5.223    -5.223     0.000    -14.60
   FeCO3           2.604e-09   2.605e-09    -8.584    -8.584     0.000     (0)  
   FeHCO3+         1.242e-09   1.190e-09    -8.906    -8.925    -0.019     (0)  
   CaHCO3+         3.572e-11   3.424e-11   -10.447   -10.465    -0.018      9.67
   (CO2)2          1.882e-12   1.882e-12   -11.725   -11.725     0.000     68.75
Ca            5.032e-04
   Ca+2            4.972e-04   4.192e-04    -3.303    -3.378    -0.074    -18.12
   CaCO3           5.987e-06   5.989e-06    -5.223    -5.223     0.000    -14.60
   CaOH+           1.414e-08   1.354e-08    -7.850    -7.868    -0.019     (0)  
   CaSO4           2.886e-09   2.886e-09    -8.540    -8.540     0.000      7.22
   CaHCO3+         3.572e-11   3.424e-11   -10.447   -10.465    -0.018      9.67
   CaHSO4+         1.297e-16   1.243e-16   -15.887   -15.906    -0.019     (0)  
Fe(2)         1.979e-08
   Fe+2            1.512e-08   1.277e-08    -7.820    -7.894    -0.073    -22.11
   FeCO3           2.604e-09   2.605e-09    -8.584    -8.584     0.000     (0)  
   FeHCO3+         1.242e-09   1.190e-09    -8.906    -8.925    -0.019     (0)  
   FeOH+           8.205e-10   7.861e-10    -9.086    -9.105    -0.019     (0)  
   Fe(OH)2         1.302e-12   1.302e-12   -11.885   -11.885     0.000     (0)  
   FeSO4           1.121e-13   1.121e-13   -12.951   -12.950     0.000     30.28
   Fe(OH)3-        9.831e-15   9.419e-15   -14.007   -14.026    -0.019     (0)  
   Fe(HS)2         6.315e-17   6.317e-17   -16.200   -16.200     0.000     (0)  
   FeHSO4+         3.953e-21   3.785e-21   -20.403   -20.422    -0.019     (0)  
   Fe(HS)3-        1.692e-23   1.620e-23   -22.772   -22.790    -0.019     (0)  
Fe(3)         3.378e-14
   Fe(OH)3         2.753e-14   2.754e-14   -13.560   -13.560     0.000     (0)  
   Fe(OH)4-        5.102e-15   4.889e-15   -14.292   -14.311    -0.018     (0)  
   Fe(OH)2+        1.146e-15   1.098e-15   -14.941   -14.959    -0.018     (0)  
   FeOH+2          2.022e-20   1.704e-20   -19.694   -19.769    -0.074     (0)  
   Fe+3            1.958e-26   1.356e-26   -25.708   -25.868    -0.160     (0)  
   FeSO4+          7.659e-30   7.338e-30   -29.116   -29.134    -0.019     (0)  
   Fe(SO4)2-       8.274e-36   7.924e-36   -35.082   -35.101    -0.019     (0)  
   FeHSO4+2        1.200e-37   1.009e-37   -36.921   -36.996    -0.075     (0)  
   Fe2(OH)2+4      1.562e-38   7.816e-39   -37.806   -38.107    -0.301     (0)  
   Fe3(OH)4+5      0.000e+00   0.000e+00   -50.276   -50.746    -0.470     (0)  
H(0)          3.023e-10
   H2              1.511e-10   1.512e-10    -9.821    -9.821     0.000     14.99
O(0)          0.000e+00
   O2              0.000e+00   0.000e+00   -72.722   -72.722     0.000     30.40
S(-2)         2.566e-09
   HS-             2.461e-09   2.356e-09    -8.609    -8.628    -0.019     20.61
   H2S             1.058e-10   1.058e-10    -9.976    -9.975     0.000     36.27
   S-2             6.572e-14   5.538e-14   -13.182   -13.257    -0.074     (0)  
   Fe(HS)2         6.315e-17   6.317e-17   -16.200   -16.200     0.000     (0)  
   (H2S)2          5.898e-22   5.900e-22   -21.229   -21.229     0.000     30.09
   Fe(HS)3-        1.692e-23   1.620e-23   -22.772   -22.790    -0.019     (0)  
S(6)          6.147e-08
   SO4-2           5.858e-08   4.936e-08    -7.232    -7.307    -0.074     14.55
   CaSO4           2.886e-09   2.886e-09    -8.540    -8.540     0.000      7.22
   FeSO4           1.121e-13   1.121e-13   -12.951   -12.950     0.000     30.28
   HSO4-           2.574e-14   2.465e-14   -13.589   -13.608    -0.019     40.28
   CaHSO4+         1.297e-16   1.243e-16   -15.887   -15.906    -0.019     (0)  
   FeHSO4+         3.953e-21   3.785e-21   -20.403   -20.422    -0.019     (0)  
   FeSO4+          7.659e-30   7.338e-30   -29.116   -29.134    -0.019     (0)  
   Fe(SO4)2-       8.274e-36   7.924e-36   -35.082   -35.101    -0.019     (0)  
   FeHSO4+2        1.200e-37   1.009e-37   -36.921   -36.996    -0.075     (0)  

------------------------------Saturation indices-------------------------------

  Phase               SI** log IAP   log K(298 K,   1 atm)

  Anhydrite        -6.37    -10.68   -4.31  CaSO4
  Aragonite        -0.11     -8.45   -8.34  CaCO3
  Calcite           0.00     -8.45   -8.45  CaCO3
  CH4(g)           -4.46     -7.26   -2.80  CH4
  CO2(g)           -3.50     -4.97   -1.47  CO2	 Pressure   0.0 atm, phi 1.000
  Fe(OH)3(a)       -5.89     -1.00    4.89  Fe(OH)3
  FeS(ppt)         -4.32     -8.23   -3.92  FeS
  Goethite          0.00     -1.00   -1.00  FeOOH
  Gypsum           -6.14    -10.68   -4.55  CaSO4:2H2O
  H2(g)            -6.72     -9.82   -3.10  H2
  H2O(g)           -1.50     -0.00    1.50  H2O
  H2S(g)           -8.98    -16.92   -7.94  H2S
  Hematite          2.01     -2.00   -4.01  Fe2O3
  Mackinawite      -3.58     -8.23   -4.65  FeS
  Melanterite     -12.99    -15.20   -2.21  FeSO4:7H2O
  O2(g)           -69.83    -72.72   -2.89  O2
  Pyrite            0.00    -18.48  -18.48  FeS2
  Siderite         -2.07    -12.96  -10.89  FeCO3
  Sulfur           -8.19     -3.30    4.88  S

**For a gas, SI = log10(fugacity). Fugacity = pressure * phi / 1 atm.
  For ideal gases, phi = 1.

Reaction step 2.

Using solution 1.	PURE WATER
Using pure phase assemblage 1.	
Using reaction 1.	

Reaction 1.	

	  1.000e-03 moles of the following reaction have been added:

	                 Relative
	Reactant            moles

	NaCl                 0.50000
	O2                   1.00000

	                 Relative
	Element             moles
	Cl                   0.50000
	Na                   0.50000
	O                    2.00000

-------------------------------Phase assemblage--------------------------------

                                                      Moles in assemblage
Phase               SI  log IAP  log K(T, P)   Initial       Final       Delta

CO2(g)           -3.50    -4.97     -1.47    1.000e+01   1.000e+01   1.359e-04
Calcite           0.00    -8.45     -8.45    1.000e+01   9.999e+00  -9.343e-04
Goethite          0.00    -1.00     -1.00    1.000e+01   1.000e+01   2.667e-04
Gypsum           -2.03    -6.58     -4.55    0.000e+00           0   0.000e+00
Pyrite           -0.00   -18.48    -18.48    1.000e+01   1.000e+01  -2.667e-04

-----------------------------Solution composition------------------------------

	Elements           Molality       Moles

	C                 7.984e-04   7.984e-04
	Ca                9.343e-04   9.343e-04
	Cl                5.000e-04   5.000e-04
	Fe                9.593e-09   9.593e-09
	Na                5.000e-04   5.000e-04
	S                 5.333e-04   5.333e-04

----------------------------Description of solution----------------------------

                                       pH  =   8.181      Charge balance
                                       pe  =  -4.299      Adjusted to redox equilibrium
      Specific Conductance (µS/cm,  25°C)  = 275
                          Density (g/cm³)  =   0.99719
                               Volume (L)  =   1.00298
                        Viscosity (mPa s)  =   0.89119
                        Activity of water  =   1.000
                 Ionic strength (mol/kgw)  =   3.675e-03
                       Mass of water (kg)  =   1.000e+00
                 Total alkalinity (eq/kg)  =   8.019e-04
                       Total CO2 (mol/kg)  =   7.984e-04
                         Temperature (°C)  =  25.00
                  Electrical balance (eq)  =  -1.217e-09
 Percent error, 100*(Cat-|An|)/(Cat+|An|)  =  -0.00
                               Iterations  =  24
                                  Total H  = 1.110122e+02
                                  Total O  = 5.551021e+01

----------------------------Distribution of species----------------------------

                                               Log       Log       Log    mole V
   Species          Molality    Activity  Molality  Activity     Gamma   cm³/mol

   OH-             1.642e-06   1.537e-06    -5.785    -5.813    -0.029     -4.08
   H+              6.997e-09   6.587e-09    -8.155    -8.181    -0.026      0.00
   H2O             5.551e+01   9.999e-01     1.744    -0.000     0.000     18.07
C(-4)         2.299e-12
   CH4             2.299e-12   2.301e-12   -11.638   -11.638     0.000     35.46
C(4)          7.984e-04
   HCO3-           7.748e-04   7.266e-04    -3.111    -3.139    -0.028     24.61
   CO2             1.075e-05   1.076e-05    -4.968    -4.968     0.000     34.79
   CO3-2           6.690e-06   5.173e-06    -5.175    -5.286    -0.112     -4.54
   CaCO3           5.984e-06   5.989e-06    -5.223    -5.223     0.000    -14.60
   NaHCO3          1.674e-07   1.676e-07    -6.776    -6.776     0.001     17.66
   FeCO3           7.383e-10   7.390e-10    -9.132    -9.131     0.000     (0)  
   FeHCO3+         4.621e-10   4.326e-10    -9.335    -9.364    -0.029     (0)  
   CaHCO3+         4.678e-11   4.390e-11   -10.330   -10.358    -0.028      9.69
   (CO2)2          1.881e-12   1.882e-12   -11.726   -11.725     0.000     68.75
Ca            9.343e-04
   Ca+2            8.916e-04   6.891e-04    -3.050    -3.162    -0.112    -18.05
   CaSO4           3.670e-05   3.671e-05    -4.435    -4.435     0.000      7.22
   CaCO3           5.984e-06   5.989e-06    -5.223    -5.223     0.000    -14.60
   CaOH+           1.854e-08   1.736e-08    -7.732    -7.760    -0.029     (0)  
   CaHCO3+         4.678e-11   4.390e-11   -10.330   -10.358    -0.028      9.69
   CaHSO4+         2.164e-12   2.026e-12   -11.665   -11.693    -0.029     (0)  
Cl            5.000e-04
   Cl-             5.000e-04   4.680e-04    -3.301    -3.330    -0.029     18.10
   FeCl+           4.108e-12   3.846e-12   -11.386   -11.415    -0.029     (0)  
   HCl             1.058e-12   1.062e-12   -11.976   -11.974     0.002     20.36
   FeCl+2          5.233e-28   4.039e-28   -27.281   -27.394    -0.112     (0)  
   FeCl2+          9.007e-31   8.442e-31   -30.045   -30.074    -0.028     (0)  
   FeCl3           3.947e-35   3.950e-35   -34.404   -34.403     0.000     (0)  
Fe(2)         9.593e-09
   Fe+2            7.679e-09   5.955e-09    -8.115    -8.225    -0.110    -22.04
   FeCO3           7.383e-10   7.390e-10    -9.132    -9.131     0.000     (0)  
   FeHCO3+         4.621e-10   4.326e-10    -9.335    -9.364    -0.029     (0)  
   FeSO4           4.041e-10   4.044e-10    -9.394    -9.393     0.000     30.28
   FeOH+           3.050e-10   2.859e-10    -9.516    -9.544    -0.028     (0)  
   FeCl+           4.108e-12   3.846e-12   -11.386   -11.415    -0.029     (0)  
   Fe(OH)2         3.691e-13   3.694e-13   -12.433   -12.433     0.000     (0)  
   Fe(OH)3-        2.223e-15   2.083e-15   -14.653   -14.681    -0.028     (0)  
   FeHSO4+         1.870e-17   1.751e-17   -16.728   -16.757    -0.029     (0)  
   Fe(HS)2         5.077e-18   5.081e-18   -17.294   -17.294     0.000     (0)  
   Fe(HS)3-        5.782e-25   5.414e-25   -24.238   -24.266    -0.029     (0)  
Fe(3)         3.309e-14
   Fe(OH)3         2.752e-14   2.754e-14   -13.560   -13.560     0.000     (0)  
   Fe(OH)4-        4.066e-15   3.813e-15   -14.391   -14.419    -0.028     (0)  
   Fe(OH)2+        1.502e-15   1.408e-15   -14.823   -14.851    -0.028     (0)  
   FeOH+2          3.629e-20   2.801e-20   -19.440   -19.553    -0.112     (0)  
   FeSO4+          1.277e-25   1.197e-25   -24.894   -24.922    -0.028     (0)  
   Fe+3            4.920e-26   2.858e-26   -25.308   -25.544    -0.236     (0)  
   Fe(SO4)2-       1.068e-27   9.999e-28   -26.971   -27.000    -0.029     (0)  
   FeCl+2          5.233e-28   4.039e-28   -27.281   -27.394    -0.112     (0)  
   FeCl2+          9.007e-31   8.442e-31   -30.045   -30.074    -0.028     (0)  
   FeHSO4+2        2.747e-33   2.111e-33   -32.561   -32.676    -0.114     (0)  
   FeCl3           3.947e-35   3.950e-35   -34.404   -34.403     0.000     (0)  
   Fe2(OH)2+4      6.055e-38   2.112e-38   -37.218   -37.675    -0.457     (0)  
   Fe3(OH)4+5      0.000e+00   0.000e+00   -49.492   -50.207    -0.715     (0)  
H(0)          2.430e-11
   H2              1.215e-11   1.216e-11   -10.915   -10.915     0.000     14.99
Na            5.000e-04
   Na+             4.982e-04   4.667e-04    -3.303    -3.331    -0.028     -1.44
   NaSO4-          1.672e-06   1.566e-06    -5.777    -5.805    -0.029     16.76
   NaHCO3          1.674e-07   1.676e-07    -6.776    -6.776     0.001     17.66
   Na2SO4          3.561e-13   3.564e-13   -12.448   -12.448     0.000     47.96
O(0)          0.000e+00
   O2              0.000e+00   0.000e+00   -70.533   -70.533     0.000     30.40
S(-2)         1.102e-09
   HS-             1.046e-09   9.785e-10    -8.981    -9.009    -0.029     20.63
   H2S             5.630e-11   5.635e-11   -10.249   -10.249     0.000     36.27
   S-2             2.325e-14   1.794e-14   -13.634   -13.746    -0.112     (0)  
   Fe(HS)2         5.077e-18   5.081e-18   -17.294   -17.294     0.000     (0)  
   (H2S)2          1.672e-22   1.673e-22   -21.777   -21.776     0.000     30.09
   Fe(HS)3-        5.782e-25   5.414e-25   -24.238   -24.266    -0.029     (0)  
S(6)          5.333e-04
   SO4-2           4.950e-04   3.819e-04    -3.305    -3.418    -0.113     14.60
   CaSO4           3.670e-05   3.671e-05    -4.435    -4.435     0.000      7.22
   NaSO4-          1.672e-06   1.566e-06    -5.777    -5.805    -0.029     16.76
   FeSO4           4.041e-10   4.044e-10    -9.394    -9.393     0.000     30.28
   HSO4-           2.612e-10   2.446e-10    -9.583    -9.612    -0.029     40.30
   CaHSO4+         2.164e-12   2.026e-12   -11.665   -11.693    -0.029     (0)  
   Na2SO4          3.561e-13   3.564e-13   -12.448   -12.448     0.000     47.96
   FeHSO4+         1.870e-17   1.751e-17   -16.728   -16.757    -0.029     (0)  
   FeSO4+          1.277e-25   1.197e-25   -24.894   -24.922    -0.028     (0)  
   Fe(SO4)2-       1.068e-27   9.999e-28   -26.971   -27.000    -0.029     (0)  
   FeHSO4+2        2.747e-33   2.111e-33   -32.561   -32.676    -0.114     (0)  

------------------------------Saturation indices-------------------------------

  Phase               SI** log IAP   log K(298 K,   1 atm)

  Anhydrite        -2.27     -6.58   -4.31  CaSO4
  Aragonite        -0.11     -8.45   -8.34  CaCO3
  Calcite           0.00     -8.45   -8.45  CaCO3
  CH4(g)           -8.84    -11.64   -2.80  CH4
  CO2(g)           -3.50     -4.97   -1.47  CO2	 Pressure   0.0 atm, phi 1.000
  Fe(OH)3(a)       -5.89     -1.00    4.89  Fe(OH)3
  FeS(ppt)         -5.14     -9.05   -3.92  FeS
  Goethite          0.00     -1.00   -1.00  FeOOH
  Gypsum           -2.03     -6.58   -4.55  CaSO4:2H2O
  H2(g)            -7.82    -10.92   -3.10  H2
  H2O(g)           -1.50     -0.00    1.50  H2O
  H2S(g)           -9.25    -17.19   -7.94  H2S
  Halite           -8.23     -6.66    1.57  NaCl
  Hematite          2.01     -2.00   -4.01  Fe2O3
  Mackinawite      -4.41     -9.05   -4.65  FeS
  Melanterite      -9.43    -11.64   -2.21  FeSO4:7H2O
  Mirabilite       -9.37    -10.08   -0.71  Na2SO4:10H2O
  O2(g)           -67.64    -70.53   -2.89  O2
  Pyrite           -0.00    -18.48  -18.48  FeS2
  Siderite         -2.62    -13.51  -10.89  FeCO3
  Sulfur           -7.37     -2.48    4.88  S
  Thenardite      -10.73    -10.08    0.65  Na2SO4

**For a gas, SI = log10(fugacity). Fugacity = pressure * phi / 1 atm.
  For ideal gases, phi = 1.

Reaction step 3.

Using solution 1.	PURE WATER
Using pure phase assemblage 1.	
Using reaction 1.	

Reaction 1.	

	  5.000e-03 moles of the following reaction have been added:

	                 Relative
	Reactant            moles

	NaCl                 0.50000
	O2                   1.00000

	                 Relative
	Element             moles
	Cl                   0.50000
	Na                   0.50000
	O                    2.00000

-------------------------------Phase assemblage--------------------------------

                                                      Moles in assemblage
Phase               SI  log IAP  log K(T, P)   Initial       Final       Delta

CO2(g)           -3.50    -4.97     -1.47    1.000e+01   1.000e+01   2.396e-03
Calcite           0.00    -8.45     -8.45    1.000e+01   9.997e+00  -2.937e-03
Goethite         -0.00    -1.00     -1.00    1.000e+01   1.000e+01   1.333e-03
Gypsum           -1.06    -5.61     -4.55    0.000e+00           0   0.000e+00
Pyrite           -0.00   -18.48    -18.48    1.000e+01   9.999e+00  -1.333e-03

-----------------------------Solution composition------------------------------

	Elements           Molality       Moles

	C                 5.414e-04   5.414e-04
	Ca                2.937e-03   2.937e-03
	Cl                2.500e-03   2.500e-03
	Fe                2.078e-08   2.078e-08
	Na                2.500e-03   2.500e-03
	S                 2.667e-03   2.667e-03

----------------------------Description of solution----------------------------

                                       pH  =   7.989      Charge balance
                                       pe  =  -3.978      Adjusted to redox equilibrium
      Specific Conductance (µS/cm,  25°C)  = 927
                          Density (g/cm³)  =   0.99755
                               Volume (L)  =   1.00299
                        Viscosity (mPa s)  =   0.89256
                        Activity of water  =   1.000
                 Ionic strength (mol/kgw)  =   1.253e-02
                       Mass of water (kg)  =   1.000e+00
                 Total alkalinity (eq/kg)  =   5.411e-04
                       Total CO2 (mol/kg)  =   5.414e-04
                         Temperature (°C)  =  25.00
                  Electrical balance (eq)  =  -1.196e-09
 Percent error, 100*(Cat-|An|)/(Cat+|An|)  =  -0.00
                               Iterations  =  24
                                  Total H  = 1.110111e+02
                                  Total O  = 5.551757e+01

----------------------------Distribution of species----------------------------

                                               Log       Log       Log    mole V
   Species          Molality    Activity  Molality  Activity     Gamma   cm³/mol

   OH-             1.109e-06   9.874e-07    -5.955    -6.006    -0.051     -4.02
   H+              1.131e-08   1.025e-08    -7.946    -7.989    -0.043      0.00
   H2O             5.551e+01   9.998e-01     1.744    -0.000     0.000     18.07
C(-4)         2.122e-13
   CH4             2.122e-13   2.129e-13   -12.673   -12.672     0.001     35.46
C(4)          5.414e-04
   HCO3-           5.209e-04   4.669e-04    -3.283    -3.331    -0.048     24.73
   CO2             1.074e-05   1.076e-05    -4.969    -4.968     0.001     34.79
   CaCO3           5.972e-06   5.989e-06    -5.224    -5.223     0.001    -14.60
   CO3-2           3.313e-06   2.136e-06    -5.480    -5.670    -0.191     -4.29
   NaHCO3          5.069e-07   5.091e-07    -6.295    -6.293     0.002     17.66
   FeHCO3+         5.603e-10   5.000e-10    -9.252    -9.301    -0.049     (0)  
   FeCO3           5.472e-10   5.488e-10    -9.262    -9.261     0.001     (0)  
   CaHCO3+         7.608e-11   6.831e-11   -10.119   -10.166    -0.047      9.73
   (CO2)2          1.879e-12   1.882e-12   -11.726   -11.725     0.001     68.75
Ca            2.937e-03
   Ca+2            2.590e-03   1.669e-03    -2.587    -2.778    -0.191    -17.89
   CaSO4           3.415e-04   3.420e-04    -3.467    -3.466     0.001      7.22
   CaCO3           5.972e-06   5.989e-06    -5.224    -5.223     0.001    -14.60
   CaOH+           3.027e-08   2.702e-08    -7.519    -7.568    -0.049     (0)  
   CaHCO3+         7.608e-11   6.831e-11   -10.119   -10.166    -0.047      9.73
   CaHSO4+         3.291e-11   2.937e-11   -10.483   -10.532    -0.049     (0)  
Cl            2.500e-03
   Cl-             2.500e-03   2.227e-03    -2.602    -2.652    -0.050     18.15
   FeCl+           3.690e-11   3.293e-11   -10.433   -10.482    -0.049     (0)  
   HCl             7.768e-12   7.864e-12   -11.110   -11.104     0.005     20.36
   FeCl+2          1.130e-26   7.244e-27   -25.947   -26.140    -0.193     (0)  
   FeCl2+          8.054e-29   7.207e-29   -28.094   -28.142    -0.048     (0)  
   FeCl3           1.601e-32   1.605e-32   -31.796   -31.794     0.001     (0)  
Fe(2)         2.078e-08
   Fe+2            1.648e-08   1.071e-08    -7.783    -7.970    -0.187    -21.90
   FeSO4           2.790e-09   2.798e-09    -8.554    -8.553     0.001     30.28
   FeHCO3+         5.603e-10   5.000e-10    -9.252    -9.301    -0.049     (0)  
   FeCO3           5.472e-10   5.488e-10    -9.262    -9.261     0.001     (0)  
   FeOH+           3.692e-10   3.304e-10    -9.433    -9.481    -0.048     (0)  
   FeCl+           3.690e-11   3.293e-11   -10.433   -10.482    -0.049     (0)  
   Fe(OH)2         2.735e-13   2.743e-13   -12.563   -12.562     0.001     (0)  
   Fe(OH)3-        1.111e-15   9.942e-16   -14.954   -15.003    -0.048     (0)  
   FeHSO4+         2.112e-16   1.885e-16   -15.675   -15.725    -0.049     (0)  
   Fe(HS)2         2.794e-18   2.802e-18   -17.554   -17.553     0.001     (0)  
   Fe(HS)3-        1.852e-25   1.653e-25   -24.732   -24.782    -0.049     (0)  
Fe(3)         3.264e-14
   Fe(OH)3         2.746e-14   2.754e-14   -13.561   -13.560     0.001     (0)  
   Fe(OH)4-        2.734e-15   2.450e-15   -14.563   -14.611    -0.048     (0)  
   Fe(OH)2+        2.445e-15   2.191e-15   -14.612   -14.659    -0.048     (0)  
   FeOH+2          1.058e-19   6.783e-20   -18.976   -19.169    -0.193     (0)  
   FeSO4+          1.939e-24   1.735e-24   -23.713   -23.761    -0.048     (0)  
   Fe+3            2.620e-25   1.077e-25   -24.582   -24.968    -0.386     (0)  
   Fe(SO4)2-       6.248e-26   5.576e-26   -25.204   -25.254    -0.049     (0)  
   FeCl+2          1.130e-26   7.244e-27   -25.947   -26.140    -0.193     (0)  
   FeCl2+          8.054e-29   7.207e-29   -28.094   -28.142    -0.048     (0)  
   FeHSO4+2        7.507e-32   4.761e-32   -31.125   -31.322    -0.198     (0)  
   FeCl3           1.601e-32   1.605e-32   -31.796   -31.794     0.001     (0)  
   Fe2(OH)2+4      7.653e-37   1.238e-37   -36.116   -36.907    -0.791     (0)  
   Fe3(OH)4+5      0.000e+00   0.000e+00   -48.011   -49.246    -1.236     (0)  
H(0)          1.337e-11
   H2              6.686e-12   6.706e-12   -11.175   -11.174     0.001     14.99
Na            2.500e-03
   Na+             2.468e-03   2.206e-03    -2.608    -2.656    -0.049     -1.36
   NaSO4-          3.189e-05   2.847e-05    -4.496    -4.546    -0.049     17.06
   NaHCO3          5.069e-07   5.091e-07    -6.295    -6.293     0.002     17.66
   Na2SO4          3.055e-11   3.063e-11   -10.515   -10.514     0.001     47.96
O(0)          0.000e+00
   O2              0.000e+00   0.000e+00   -70.017   -70.016     0.001     30.40
S(-2)         6.572e-10
   HS-             6.087e-10   5.418e-10    -9.216    -9.266    -0.051     20.68
   H2S             4.841e-11   4.855e-11   -10.315   -10.314     0.001     36.27
   S-2             9.956e-15   6.385e-15   -14.002   -14.195    -0.193     (0)  
   Fe(HS)2         2.794e-18   2.802e-18   -17.554   -17.553     0.001     (0)  
   (H2S)2          1.239e-22   1.242e-22   -21.907   -21.906     0.001     30.09
   Fe(HS)3-        1.852e-25   1.653e-25   -24.732   -24.782    -0.049     (0)  
S(6)          2.667e-03
   SO4-2           2.293e-03   1.469e-03    -2.640    -2.833    -0.193     14.71
   CaSO4           3.415e-04   3.420e-04    -3.467    -3.466     0.001      7.22
   NaSO4-          3.189e-05   2.847e-05    -4.496    -4.546    -0.049     17.06
   FeSO4           2.790e-09   2.798e-09    -8.554    -8.553     0.001     30.28
   HSO4-           1.640e-09   1.464e-09    -8.785    -8.835    -0.049     40.35
   CaHSO4+         3.291e-11   2.937e-11   -10.483   -10.532    -0.049     (0)  
   Na2SO4          3.055e-11   3.063e-11   -10.515   -10.514     0.001     47.96
   FeHSO4+         2.112e-16   1.885e-16   -15.675   -15.725    -0.049     (0)  
   FeSO4+          1.939e-24   1.735e-24   -23.713   -23.761    -0.048     (0)  
   Fe(SO4)2-       6.248e-26   5.576e-26   -25.204   -25.254    -0.049     (0)  
   FeHSO4+2        7.507e-32   4.761e-32   -31.125   -31.322    -0.198     (0)  

------------------------------Saturation indices-------------------------------

  Phase               SI** log IAP   log K(298 K,   1 atm)

  Anhydrite        -1.30     -5.61   -4.31  CaSO4
  Aragonite        -0.11     -8.45   -8.34  CaCO3
  Calcite           0.00     -8.45   -8.45  CaCO3
  CH4(g)           -9.87    -12.67   -2.80  CH4
  CO2(g)           -3.50     -4.97   -1.47  CO2	 Pressure   0.0 atm, phi 1.000
  Fe(OH)3(a)       -5.89     -1.00    4.89  Fe(OH)3
  FeS(ppt)         -5.33     -9.25   -3.92  FeS
  Goethite         -0.00     -1.00   -1.00  FeOOH
  Gypsum           -1.06     -5.61   -4.55  CaSO4:2H2O
  H2(g)            -8.07    -11.17   -3.10  H2
  H2O(g)           -1.50     -0.00    1.50  H2O
  H2S(g)           -9.32    -17.26   -7.94  H2S
  Halite           -6.88     -5.31    1.57  NaCl
  Hematite          2.01     -2.00   -4.01  Fe2O3
  Mackinawite      -4.60     -9.25   -4.65  FeS
  Melanterite      -8.59    -10.80   -2.21  FeSO4:7H2O
  Mirabilite       -7.44     -8.15   -0.71  Na2SO4:10H2O
  O2(g)           -67.12    -70.02   -2.89  O2
  Pyrite           -0.00    -18.48  -18.48  FeS2
  Siderite         -2.75    -13.64  -10.89  FeCO3
  Sulfur           -7.17     -2.29    4.88  S
  Thenardite       -8.80     -8.15    0.65  Na2SO4

**For a gas, SI = log10(fugacity). Fugacity = pressure * phi / 1 atm.
  For ideal gases, phi = 1.

Reaction step 4.

Using solution 1.	PURE WATER
Using pure phase assemblage 1.	
Using reaction 1.	

Reaction 1.	

	  1.000e-02 moles of the following reaction have been added:

	                 Relative
	Reactant            moles

	NaCl                 0.50000
	O2                   1.00000

	                 Relative
	Element             moles
	Cl                   0.50000
	Na                   0.50000
	O                    2.00000

-------------------------------Phase assemblage--------------------------------

                                                      Moles in assemblage
Phase               SI  log IAP  log K(T, P)   Initial       Final       Delta

CO2(g)           -3.50    -4.97     -1.47    1.000e+01   1.001e+01   5.109e-03
Calcite           0.00    -8.45     -8.45    1.000e+01   9.994e+00  -5.556e-03
Goethite          0.00    -1.00     -1.00    1.000e+01   1.000e+01   2.667e-03
Gypsum           -0.64    -5.19     -4.55    0.000e+00           0   0.000e+00
Pyrite            0.00   -18.48    -18.48    1.000e+01   9.997e+00  -2.667e-03

-----------------------------Solution composition------------------------------

	Elements           Molality       Moles

	C                 4.463e-04   4.462e-04
	Ca                5.556e-03   5.556e-03
	Cl                5.000e-03   5.000e-03
	Fe                3.398e-08   3.398e-08
	Na                5.000e-03   5.000e-03
	S                 5.333e-03   5.333e-03

----------------------------Description of solution----------------------------

                                       pH  =   7.889      Charge balance
                                       pe  =  -3.821      Adjusted to redox equilibrium
      Specific Conductance (µS/cm,  25°C)  = 1686
                          Density (g/cm³)  =   0.99801
                               Volume (L)  =   1.00302
                        Viscosity (mPa s)  =   0.89406
                        Activity of water  =   1.000
                 Ionic strength (mol/kgw)  =   2.318e-02
                       Mass of water (kg)  =   1.000e+00
                 Total alkalinity (eq/kg)  =   4.448e-04
                       Total CO2 (mol/kg)  =   4.463e-04
                         Temperature (°C)  =  25.00
                  Electrical balance (eq)  =  -1.217e-09
 Percent error, 100*(Cat-|An|)/(Cat+|An|)  =  -0.00
                               Iterations  =  25
                                  Total H  = 1.110098e+02
                                  Total O  = 5.552733e+01

----------------------------Distribution of species----------------------------

                                               Log       Log       Log    mole V
   Species          Molality    Activity  Molality  Activity     Gamma   cm³/mol

   OH-             9.126e-07   7.838e-07    -6.040    -6.106    -0.066     -3.97
   H+              1.460e-08   1.291e-08    -7.836    -7.889    -0.054      0.00
   H2O             5.551e+01   9.997e-01     1.744    -0.000     0.000     18.07
C(-4)         7.533e-14
   CH4             7.533e-14   7.574e-14   -13.123   -13.121     0.002     35.46
C(4)          4.463e-04
   HCO3-           4.264e-04   3.706e-04    -3.370    -3.431    -0.061     24.84
   CO2             1.072e-05   1.076e-05    -4.970    -4.968     0.002     34.79
   CaCO3           5.957e-06   5.989e-06    -5.225    -5.223     0.002    -14.60
   CO3-2           2.364e-06   1.346e-06    -5.626    -5.871    -0.245     -4.10
   NaHCO3          7.699e-07   7.762e-07    -6.114    -6.110     0.004     17.66
   FeHCO3+         6.412e-10   5.535e-10    -9.193    -9.257    -0.064     (0)  
   FeCO3           4.798e-10   4.824e-10    -9.319    -9.317     0.002     (0)  
   CaHCO3+         9.873e-11   8.604e-11   -10.006   -10.065    -0.060      9.75
   (CO2)2          1.876e-12   1.882e-12   -11.727   -11.725     0.002     68.75
Ca            5.556e-03
   Ca+2            4.651e-03   2.648e-03    -2.332    -2.577    -0.245    -17.79
   CaSO4           8.985e-04   9.006e-04    -3.046    -3.045     0.001      7.22
   CaCO3           5.957e-06   5.989e-06    -5.225    -5.223     0.002    -14.60
   CaOH+           3.942e-08   3.403e-08    -7.404    -7.468    -0.064     (0)  
   CaHSO4+         1.129e-10   9.743e-11    -9.947   -10.011    -0.064     (0)  
   CaHCO3+         9.873e-11   8.604e-11   -10.006   -10.065    -0.060      9.75
Cl            5.000e-03
   Cl-             5.000e-03   4.302e-03    -2.301    -2.366    -0.065     18.19
   FeCl+           1.027e-10   8.869e-11    -9.988   -10.052    -0.064     (0)  
   HCl             1.870e-11   1.913e-11   -10.728   -10.718     0.010     20.36
   FeCl+2          4.956e-26   2.797e-26   -25.305   -25.553    -0.248     (0)  
   FeCl2+          6.201e-28   5.375e-28   -27.208   -27.270    -0.062     (0)  
   FeCl3           2.300e-31   2.312e-31   -30.638   -30.636     0.002     (0)  
Fe(2)         3.398e-08
   Fe+2            2.589e-08   1.494e-08    -7.587    -7.826    -0.239    -21.79
   FeSO4           6.442e-09   6.476e-09    -8.191    -8.189     0.002     30.28
   FeHCO3+         6.412e-10   5.535e-10    -9.193    -9.257    -0.064     (0)  
   FeCO3           4.798e-10   4.824e-10    -9.319    -9.317     0.002     (0)  
   FeOH+           4.220e-10   3.657e-10    -9.375    -9.437    -0.062     (0)  
   FeCl+           1.027e-10   8.869e-11    -9.988   -10.052    -0.064     (0)  
   Fe(OH)2         2.398e-13   2.411e-13   -12.620   -12.618     0.002     (0)  
   Fe(OH)3-        8.001e-16   6.935e-16   -15.097   -15.159    -0.062     (0)  
   FeHSO4+         6.366e-16   5.496e-16   -15.196   -15.260    -0.064     (0)  
   Fe(HS)2         2.152e-18   2.164e-18   -17.667   -17.665     0.002     (0)  
   Fe(HS)3-        1.100e-25   9.500e-26   -24.958   -25.022    -0.064     (0)  
Fe(3)         3.280e-14
   Fe(OH)3         2.739e-14   2.753e-14   -13.562   -13.560     0.002     (0)  
   Fe(OH)2+        3.177e-15   2.760e-15   -14.498   -14.559    -0.061     (0)  
   Fe(OH)4-        2.238e-15   1.944e-15   -14.650   -14.711    -0.061     (0)  
   FeOH+2          1.907e-19   1.076e-19   -18.720   -18.968    -0.248     (0)  
   FeSO4+          6.641e-24   5.756e-24   -23.178   -23.240    -0.062     (0)  
   Fe+3            6.531e-25   2.153e-25   -24.185   -24.667    -0.482     (0)  
   Fe(SO4)2-       3.557e-25   3.070e-25   -24.449   -24.513    -0.064     (0)  
   FeCl+2          4.956e-26   2.797e-26   -25.305   -25.553    -0.248     (0)  
   FeCl2+          6.201e-28   5.375e-28   -27.208   -27.270    -0.062     (0)  
   FeHSO4+2        3.583e-31   1.990e-31   -30.446   -30.701    -0.255     (0)  
   FeCl3           2.300e-31   2.312e-31   -30.638   -30.636     0.002     (0)  
   Fe2(OH)2+4      3.277e-36   3.119e-37   -35.485   -36.506    -1.022     (0)  
   Fe3(OH)4+5      0.000e+00   0.000e+00   -47.149   -48.745    -1.596     (0)  
H(0)          1.030e-11
   H2              5.150e-12   5.179e-12   -11.288   -11.286     0.002     14.99
Na            5.000e-03
   Na+             4.894e-03   4.237e-03    -2.310    -2.373    -0.063     -1.31
   NaSO4-          1.051e-04   9.076e-05    -3.978    -4.042    -0.064     17.30
   NaHCO3          7.699e-07   7.762e-07    -6.114    -6.110     0.004     17.66
   Na2SO4          1.866e-10   1.875e-10    -9.729    -9.727     0.002     47.96
O(0)          0.000e+00
   O2              0.000e+00   0.000e+00   -69.794   -69.791     0.002     30.40
S(-2)         5.147e-10
   HS-             4.694e-10   4.032e-10    -9.328    -9.395    -0.066     20.72
   H2S             4.527e-11   4.551e-11   -10.344   -10.342     0.002     36.27
   S-2             6.684e-15   3.772e-15   -14.175   -14.423    -0.248     (0)  
   Fe(HS)2         2.152e-18   2.164e-18   -17.667   -17.665     0.002     (0)  
   (H2S)2          1.085e-22   1.091e-22   -21.964   -21.962     0.002     30.09
   Fe(HS)3-        1.100e-25   9.500e-26   -24.958   -25.022    -0.064     (0)  
S(6)          5.333e-03
   SO4-2           4.330e-03   2.438e-03    -2.364    -2.613    -0.249     14.79
   CaSO4           8.985e-04   9.006e-04    -3.046    -3.045     0.001      7.22
   NaSO4-          1.051e-04   9.076e-05    -3.978    -4.042    -0.064     17.30
   FeSO4           6.442e-09   6.476e-09    -8.191    -8.189     0.002     30.28
   HSO4-           3.545e-09   3.060e-09    -8.450    -8.514    -0.064     40.39
   Na2SO4          1.866e-10   1.875e-10    -9.729    -9.727     0.002     47.96
   CaHSO4+         1.129e-10   9.743e-11    -9.947   -10.011    -0.064     (0)  
   FeHSO4+         6.366e-16   5.496e-16   -15.196   -15.260    -0.064     (0)  
   FeSO4+          6.641e-24   5.756e-24   -23.178   -23.240    -0.062     (0)  
   Fe(SO4)2-       3.557e-25   3.070e-25   -24.449   -24.513    -0.064     (0)  
   FeHSO4+2        3.583e-31   1.990e-31   -30.446   -30.701    -0.255     (0)  

------------------------------Saturation indices-------------------------------

  Phase               SI** log IAP   log K(298 K,   1 atm)

  Anhydrite        -0.88     -5.19   -4.31  CaSO4
  Aragonite        -0.11     -8.45   -8.34  CaCO3
  Calcite           0.00     -8.45   -8.45  CaCO3
  CH4(g)          -10.32    -13.12   -2.80  CH4
  CO2(g)           -3.50     -4.97   -1.47  CO2	 Pressure   0.0 atm, phi 1.000
  Fe(OH)3(a)       -5.89     -1.00    4.89  Fe(OH)3
  FeS(ppt)         -5.42     -9.33   -3.92  FeS
  Goethite          0.00     -1.00   -1.00  FeOOH
  Gypsum           -0.64     -5.19   -4.55  CaSO4:2H2O
  H2(g)            -8.19    -11.29   -3.10  H2
  H2O(g)           -1.50     -0.00    1.50  H2O
  H2S(g)           -9.35    -17.28   -7.94  H2S
  Halite           -6.31     -4.74    1.57  NaCl
  Hematite          2.01     -2.00   -4.01  Fe2O3
  Mackinawite      -4.68     -9.33   -4.65  FeS
  Melanterite      -8.23    -10.44   -2.21  FeSO4:7H2O
  Mirabilite       -6.65     -7.36   -0.71  Na2SO4:10H2O
  O2(g)           -66.90    -69.79   -2.89  O2
  Pyrite            0.00    -18.48  -18.48  FeS2
  Siderite         -2.81    -13.70  -10.89  FeCO3
  Sulfur           -7.09     -2.21    4.88  S
  Thenardite       -8.01     -7.36    0.65  Na2SO4

**For a gas, SI = log10(fugacity). Fugacity = pressure * phi / 1 atm.
  For ideal gases, phi = 1.

Reaction step 5.

Using solution 1.	PURE WATER
Using pure phase assemblage 1.	
Using reaction 1.	

Reaction 1.	

	  3.000e-02 moles of the following reaction have been added:

	                 Relative
	Reactant            moles

	NaCl                 0.50000
	O2                   1.00000

	                 Relative
	Element             moles
	Cl                   0.50000
	Na                   0.50000
	O                    2.00000

-------------------------------Phase assemblage--------------------------------

                                                      Moles in assemblage
Phase               SI  log IAP  log K(T, P)   Initial       Final       Delta

CO2(g)           -3.50    -4.97     -1.47    1.000e+01   1.002e+01   1.583e-02
Calcite           0.00    -8.45     -8.45    1.000e+01   9.984e+00  -1.617e-02
Goethite         -0.00    -1.00     -1.00    1.000e+01   1.001e+01   8.000e-03
Gypsum           -0.01    -4.56     -4.55    0.000e+00           0   0.000e+00
Pyrite            0.00   -18.48    -18.48    1.000e+01   9.992e+00  -8.000e-03

-----------------------------Solution composition------------------------------

	Elements           Molality       Moles

	C                 3.345e-04   3.345e-04
	Ca                1.617e-02   1.617e-02
	Cl                1.500e-02   1.500e-02
	Fe                8.088e-08   8.087e-08
	Na                1.500e-02   1.500e-02
	S                 1.600e-02   1.600e-02

----------------------------Description of solution----------------------------

                                       pH  =   7.731      Charge balance
                                       pe  =  -3.579      Adjusted to redox equilibrium
      Specific Conductance (µS/cm,  25°C)  = 4420
                          Density (g/cm³)  =   0.99986
                               Volume (L)  =   1.00315
                        Viscosity (mPa s)  =   0.89927
                        Activity of water  =   0.999
                 Ionic strength (mol/kgw)  =   6.302e-02
                       Mass of water (kg)  =   9.999e-01
                 Total alkalinity (eq/kg)  =   3.320e-04
                       Total CO2 (mol/kg)  =   3.345e-04
                         Temperature (°C)  =  25.00
                  Electrical balance (eq)  =  -1.211e-09
 Percent error, 100*(Cat-|An|)/(Cat+|An|)  =  -0.00
                               Iterations  =  25
                                  Total H  = 1.110044e+02
                                  Total O  = 5.556705e+01

----------------------------Distribution of species----------------------------

                                               Log       Log       Log    mole V
   Species          Molality    Activity  Molality  Activity     Gamma   cm³/mol

   OH-             6.838e-07   5.440e-07    -6.165    -6.264    -0.099     -3.83
   H+              2.202e-08   1.859e-08    -7.657    -7.731    -0.073      0.00
   H2O             5.551e+01   9.990e-01     1.744    -0.000     0.000     18.07
C(-4)         1.594e-14
   CH4             1.594e-14   1.617e-14   -13.797   -13.791     0.006     35.46
C(4)          3.345e-04
   HCO3-           3.151e-04   2.572e-04    -3.502    -3.590    -0.088     25.15
   CO2             1.066e-05   1.076e-05    -4.972    -4.968     0.004     34.79
   CaCO3           5.903e-06   5.989e-06    -5.229    -5.223     0.006    -14.60
   CO3-2           1.467e-06   6.490e-07    -5.833    -6.188    -0.354     -3.60
   NaHCO3          1.450e-06   1.482e-06    -5.839    -5.829     0.010     17.66
   FeHCO3+         8.139e-10   6.575e-10    -9.089    -9.182    -0.093     (0)  
   FeCO3           3.922e-10   3.979e-10    -9.407    -9.400     0.006     (0)  
   CaHCO3+         1.509e-10   1.239e-10    -9.821    -9.907    -0.086      9.80
   (CO2)2          1.864e-12   1.882e-12   -11.729   -11.725     0.004     68.75
Ca            1.617e-02
   Ca+2            1.236e-02   5.493e-03    -1.908    -2.260    -0.352    -17.56
   CaSO4           3.799e-03   3.824e-03    -2.420    -2.417     0.003      7.22
   CaCO3           5.903e-06   5.989e-06    -5.229    -5.223     0.006    -14.60
   CaOH+           6.066e-08   4.900e-08    -7.217    -7.310    -0.093     (0)  
   CaHSO4+         7.374e-10   5.957e-10    -9.132    -9.225    -0.093     (0)  
   CaHCO3+         1.509e-10   1.239e-10    -9.821    -9.907    -0.086      9.80
Cl            1.500e-02
   Cl-             1.500e-02   1.199e-02    -1.824    -1.921    -0.097     18.28
   FeCl+           5.235e-10   4.229e-10    -9.281    -9.374    -0.093     (0)  
   HCl             7.215e-11   7.675e-11   -10.142   -10.115     0.027     20.36
   FeCl+2          5.368e-25   2.329e-25   -24.270   -24.633    -0.363     (0)  
   FeCl2+          1.536e-26   1.247e-26   -25.813   -25.904    -0.091     (0)  
   FeCl3           1.473e-29   1.495e-29   -28.832   -28.825     0.006     (0)  
Fe(2)         8.088e-08
   Fe+2            5.626e-08   2.556e-08    -7.250    -7.592    -0.343    -21.58
   FeSO4           2.236e-08   2.268e-08    -7.651    -7.644     0.006     30.28
   FeHCO3+         8.139e-10   6.575e-10    -9.089    -9.182    -0.093     (0)  
   FeOH+           5.352e-10   4.344e-10    -9.271    -9.362    -0.091     (0)  
   FeCl+           5.235e-10   4.229e-10    -9.281    -9.374    -0.093     (0)  
   FeCO3           3.922e-10   3.979e-10    -9.407    -9.400     0.006     (0)  
   Fe(OH)2         1.959e-13   1.987e-13   -12.708   -12.702     0.006     (0)  
   FeHSO4+         3.431e-15   2.771e-15   -14.465   -14.557    -0.093     (0)  
   Fe(OH)3-        4.889e-16   3.968e-16   -15.311   -15.401    -0.091     (0)  
   Fe(HS)2         1.449e-18   1.471e-18   -17.839   -17.833     0.006     (0)  
   Fe(HS)3-        5.036e-26   4.068e-26   -25.298   -25.391    -0.093     (0)  
Fe(3)         3.365e-14
   Fe(OH)3         2.712e-14   2.752e-14   -13.567   -13.560     0.006     (0)  
   Fe(OH)2+        4.873e-15   3.974e-15   -14.312   -14.401    -0.089     (0)  
   Fe(OH)4-        1.654e-15   1.349e-15   -14.782   -14.870    -0.089     (0)  
   FeOH+2          5.147e-19   2.233e-19   -18.288   -18.651    -0.363     (0)  
   FeSO4+          4.339e-23   3.521e-23   -22.363   -22.453    -0.091     (0)  
   Fe(SO4)2-       4.759e-24   3.845e-24   -23.322   -23.415    -0.093     (0)  
   Fe+3            2.951e-24   6.435e-25   -23.530   -24.191    -0.661     (0)  
   FeCl+2          5.368e-25   2.329e-25   -24.270   -24.633    -0.363     (0)  
   FeCl2+          1.536e-26   1.247e-26   -25.813   -25.904    -0.091     (0)  
   FeCl3           1.473e-29   1.495e-29   -28.832   -28.825     0.006     (0)  
   FeHSO4+2        4.116e-30   1.753e-30   -29.385   -29.756    -0.371     (0)  
   Fe2(OH)2+4      4.083e-35   1.342e-36   -34.389   -35.872    -1.483     (0)  
   Fe3(OH)4+5      0.000e+00   0.000e+00   -45.635   -47.953    -2.318     (0)  
H(0)          6.932e-12
   H2              3.466e-12   3.519e-12   -11.460   -11.454     0.007     14.99
Na            1.500e-02
   Na+             1.437e-02   1.166e-02    -1.843    -1.933    -0.091     -1.18
   NaSO4-          6.327e-04   5.112e-04    -3.199    -3.291    -0.093     17.91
   NaHCO3          1.450e-06   1.482e-06    -5.839    -5.829     0.010     17.66
   Na2SO4          2.869e-09   2.907e-09    -8.542    -8.537     0.006     47.96
O(0)          0.000e+00
   O2              0.000e+00   0.000e+00   -69.463   -69.456     0.006     30.40
S(-2)         3.601e-10
   HS-             3.194e-10   2.541e-10    -9.496    -9.595    -0.099     20.81
   H2S             4.070e-11   4.129e-11   -10.390   -10.384     0.006     36.27
   S-2             3.805e-15   1.651e-15   -14.420   -14.782    -0.363     (0)  
   Fe(HS)2         1.449e-18   1.471e-18   -17.839   -17.833     0.006     (0)  
   (H2S)2          8.855e-23   8.985e-23   -22.053   -22.046     0.006     30.09
   Fe(HS)3-        5.036e-26   4.068e-26   -25.298   -25.391    -0.093     (0)  
S(6)          1.600e-02
   SO4-2           1.157e-02   4.991e-03    -1.937    -2.302    -0.365     15.00
   CaSO4           3.799e-03   3.824e-03    -2.420    -2.417     0.003      7.22
   NaSO4-          6.327e-04   5.112e-04    -3.199    -3.291    -0.093     17.91
   FeSO4           2.236e-08   2.268e-08    -7.651    -7.644     0.006     30.28
   HSO4-           1.116e-08   9.019e-09    -7.952    -8.045    -0.093     40.48
   Na2SO4          2.869e-09   2.907e-09    -8.542    -8.537     0.006     47.96
   CaHSO4+         7.374e-10   5.957e-10    -9.132    -9.225    -0.093     (0)  
   FeHSO4+         3.431e-15   2.771e-15   -14.465   -14.557    -0.093     (0)  
   FeSO4+          4.339e-23   3.521e-23   -22.363   -22.453    -0.091     (0)  
   Fe(SO4)2-       4.759e-24   3.845e-24   -23.322   -23.415    -0.093     (0)  
   FeHSO4+2        4.116e-30   1.753e-30   -29.385   -29.756    -0.371     (0)  

------------------------------Saturation indices-------------------------------

  Phase               SI** log IAP   log K(298 K,   1 atm)

  Anhydrite        -0.25     -4.56   -4.31  CaSO4
  Aragonite        -0.11     -8.45   -8.34  CaCO3
  Calcite           0.00     -8.45   -8.45  CaCO3
  CH4(g)          -10.99    -13.79   -2.80  CH4
  CO2(g)           -3.50     -4.97   -1.47  CO2	 Pressure   0.0 atm, phi 1.000
  Fe(OH)3(a)       -5.89     -1.00    4.89  Fe(OH)3
  FeS(ppt)         -5.54     -9.46   -3.92  FeS
  Goethite         -0.00     -1.00   -1.00  FeOOH
  Gypsum           -0.01     -4.56   -4.55  CaSO4:2H2O
  H2(g)            -8.35    -11.45   -3.10  H2
  H2O(g)           -1.50     -0.00    1.50  H2O
  H2S(g)           -9.39    -17.33   -7.94  H2S
  Halite           -5.42     -3.85    1.57  NaCl
  Hematite          2.01     -2.00   -4.01  Fe2O3
  Mackinawite      -4.81     -9.46   -4.65  FeS
  Melanterite      -7.69     -9.90   -2.21  FeSO4:7H2O
  Mirabilite       -5.47     -6.17   -0.71  Na2SO4:10H2O
  O2(g)           -66.56    -69.46   -2.89  O2
  Pyrite            0.00    -18.48  -18.48  FeS2
  Siderite         -2.89    -13.78  -10.89  FeCO3
  Sulfur           -6.96     -2.08    4.88  S
  Thenardite       -6.82     -6.17    0.65  Na2SO4

**For a gas, SI = log10(fugacity). Fugacity = pressure * phi / 1 atm.
  For ideal gases, phi = 1.

Reaction step 6.

Using solution 1.	PURE WATER
Using pure phase assemblage 1.	
Using reaction 1.	

Reaction 1.	

	  5.000e-02 moles of the following reaction have been added:

	                 Relative
	Reactant            moles

	NaCl                 0.50000
	O2                   1.00000

	                 Relative
	Element             moles
	Cl                   0.50000
	Na                   0.50000
	O                    2.00000

-------------------------------Phase assemblage--------------------------------

                                                      Moles in assemblage
Phase               SI  log IAP  log K(T, P)   Initial       Final       Delta

CO2(g)           -3.50    -4.97     -1.47    1.000e+01   1.003e+01   2.650e-02
Calcite          -0.00    -8.45     -8.45    1.000e+01   9.973e+00  -2.683e-02
Goethite          0.00    -1.00     -1.00    1.000e+01   1.001e+01   1.333e-02
Gypsum            0.00    -4.55     -4.55    0.000e+00   9.412e-03   9.412e-03
Pyrite           -0.00   -18.48    -18.48    1.000e+01   9.987e+00  -1.333e-02

-----------------------------Solution composition------------------------------

	Elements           Molality       Moles

	C                 3.344e-04   3.342e-04
	Ca                1.743e-02   1.742e-02
	Cl                2.501e-02   2.500e-02
	Fe                8.671e-08   8.667e-08
	Na                2.501e-02   2.500e-02
	S                 1.726e-02   1.726e-02

----------------------------Description of solution----------------------------

                                       pH  =   7.723      Charge balance
                                       pe  =  -3.570      Adjusted to redox equilibrium
      Specific Conductance (µS/cm,  25°C)  = 5674
                          Density (g/cm³)  =   1.00044
                               Volume (L)  =   1.00294
                        Viscosity (mPa s)  =   0.90024
                        Activity of water  =   0.999
                 Ionic strength (mol/kgw)  =   7.674e-02
                       Mass of water (kg)  =   9.995e-01
                 Total alkalinity (eq/kg)  =   3.319e-04
                       Total CO2 (mol/kg)  =   3.344e-04
                         Temperature (°C)  =  25.00
                  Electrical balance (eq)  =  -1.130e-09
 Percent error, 100*(Cat-|An|)/(Cat+|An|)  =  -0.00
                               Iterations  =  25
                                  Total H  = 1.109615e+02
                                  Total O  = 5.555058e+01

----------------------------Distribution of species----------------------------

                                               Log       Log       Log    mole V
   Species          Molality    Activity  Molality  Activity     Gamma   cm³/mol

   OH-             6.844e-07   5.347e-07    -6.165    -6.272    -0.107     -3.79
   H+              2.260e-08   1.890e-08    -7.646    -7.723    -0.078      0.00
   H2O             5.551e+01   9.986e-01     1.744    -0.001     0.000     18.07
C(-4)         1.532e-14
   CH4             1.532e-14   1.560e-14   -13.815   -13.807     0.008     35.46
C(4)          3.344e-04
   HCO3-           3.140e-04   2.528e-04    -3.503    -3.597    -0.094     25.24
   CO2             1.064e-05   1.076e-05    -4.973    -4.968     0.005     34.79
   CaCO3           5.884e-06   5.989e-06    -5.230    -5.223     0.008    -14.60
   NaHCO3          2.333e-06   2.396e-06    -5.632    -5.621     0.012     17.66
   CO3-2           1.501e-06   6.273e-07    -5.824    -6.203    -0.379     -3.47
   FeHCO3+         8.360e-10   6.657e-10    -9.078    -9.177    -0.099     (0)  
   FeCO3           3.893e-10   3.962e-10    -9.410    -9.402     0.008     (0)  
   CaHCO3+         1.555e-10   1.260e-10    -9.808    -9.900    -0.091      9.82
   (CO2)2          1.861e-12   1.882e-12   -11.730   -11.725     0.005     68.75
Ca            1.743e-02
   Ca+2            1.350e-02   5.683e-03    -1.870    -2.245    -0.376    -17.51
   CaSO4           3.923e-03   3.954e-03    -2.406    -2.403     0.003      7.22
   CaCO3           5.884e-06   5.989e-06    -5.230    -5.223     0.008    -14.60
   CaOH+           6.257e-08   4.983e-08    -7.204    -7.303    -0.099     (0)  
   CaHSO4+         7.864e-10   6.263e-10    -9.104    -9.203    -0.099     (0)  
   CaHCO3+         1.555e-10   1.260e-10    -9.808    -9.900    -0.091      9.82
Cl            2.501e-02
   Cl-             2.501e-02   1.964e-02    -1.602    -1.707    -0.105     18.30
   FeCl+           8.965e-10   7.140e-10    -9.047    -9.146    -0.099     (0)  
   HCl             1.186e-10   1.279e-10    -9.926    -9.893     0.033     20.36
   FeCl+2          9.827e-25   4.018e-25   -24.008   -24.396    -0.388     (0)  
   FeCl2+          4.409e-26   3.525e-26   -25.356   -25.453    -0.097     (0)  
   FeCl3           6.804e-29   6.926e-29   -28.167   -28.160     0.008     (0)  
Fe(2)         8.671e-08
   Fe+2            6.109e-08   2.633e-08    -7.214    -7.580    -0.366    -21.53
   FeSO4           2.294e-08   2.335e-08    -7.639    -7.632     0.008     30.28
   FeCl+           8.965e-10   7.140e-10    -9.047    -9.146    -0.099     (0)  
   FeHCO3+         8.360e-10   6.657e-10    -9.078    -9.177    -0.099     (0)  
   FeOH+           5.501e-10   4.399e-10    -9.260    -9.357    -0.097     (0)  
   FeCO3           3.893e-10   3.962e-10    -9.410    -9.402     0.008     (0)  
   Fe(OH)2         1.943e-13   1.978e-13   -12.711   -12.704     0.008     (0)  
   FeHSO4+         3.644e-15   2.901e-15   -14.438   -14.537    -0.099     (0)  
   Fe(OH)3-        4.855e-16   3.882e-16   -15.314   -15.411    -0.097     (0)  
   Fe(HS)2         1.431e-18   1.457e-18   -17.844   -17.837     0.008     (0)  
   Fe(HS)3-        4.964e-26   3.953e-26   -25.304   -25.403    -0.099     (0)  
Fe(3)         3.370e-14
   Fe(OH)3         2.702e-14   2.750e-14   -13.568   -13.561     0.008     (0)  
   Fe(OH)2+        5.026e-15   4.041e-15   -14.299   -14.393    -0.095     (0)  
   Fe(OH)4-        1.648e-15   1.325e-15   -14.783   -14.878    -0.095     (0)  
   FeOH+2          5.650e-19   2.310e-19   -18.248   -18.636    -0.388     (0)  
   FeSO4+          4.632e-23   3.704e-23   -22.334   -22.431    -0.097     (0)  
   Fe(SO4)2-       5.075e-24   4.041e-24   -23.295   -23.393    -0.099     (0)  
   Fe+3            3.387e-24   6.772e-25   -23.470   -24.169    -0.699     (0)  
   FeCl+2          9.827e-25   4.018e-25   -24.008   -24.396    -0.388     (0)  
   FeCl2+          4.409e-26   3.525e-26   -25.356   -25.453    -0.097     (0)  
   FeCl3           6.804e-29   6.926e-29   -28.167   -28.160     0.008     (0)  
   FeHSO4+2        4.661e-30   1.875e-30   -29.331   -29.727    -0.396     (0)  
   Fe2(OH)2+4      5.490e-35   1.436e-36   -34.260   -35.843    -1.582     (0)  
   Fe3(OH)4+5      0.000e+00   0.000e+00   -45.444   -47.916    -2.472     (0)  
H(0)          6.845e-12
   H2              3.423e-12   3.487e-12   -11.466   -11.458     0.008     14.99
Na            2.501e-02
   Na+             2.395e-02   1.917e-02    -1.621    -1.717    -0.097     -1.14
   NaSO4-          1.055e-03   8.400e-04    -2.977    -3.076    -0.099     18.08
   NaHCO3          2.333e-06   2.396e-06    -5.632    -5.621     0.012     17.66
   Na2SO4          7.730e-09   7.852e-09    -8.112    -8.105     0.007     47.96
O(0)          0.000e+00
   O2              0.000e+00   0.000e+00   -69.456   -69.449     0.008     30.40
S(-2)         3.594e-10
   HS-             3.189e-10   2.492e-10    -9.496    -9.604    -0.107     20.83
   H2S             4.046e-11   4.118e-11   -10.393   -10.385     0.008     36.27
   S-2             3.894e-15   1.592e-15   -14.410   -14.798    -0.388     (0)  
   Fe(HS)2         1.431e-18   1.457e-18   -17.844   -17.837     0.008     (0)  
   (H2S)2          8.780e-23   8.936e-23   -22.057   -22.049     0.008     30.09
   Fe(HS)3-        4.964e-26   3.953e-26   -25.304   -25.403    -0.099     (0)  
S(6)          1.726e-02
   SO4-2           1.229e-02   4.988e-03    -1.911    -2.302    -0.391     15.06
   CaSO4           3.923e-03   3.954e-03    -2.406    -2.403     0.003      7.22
   NaSO4-          1.055e-03   8.400e-04    -2.977    -3.076    -0.099     18.08
   FeSO4           2.294e-08   2.335e-08    -7.639    -7.632     0.008     30.28
   HSO4-           1.151e-08   9.166e-09    -7.939    -8.038    -0.099     40.50
   Na2SO4          7.730e-09   7.852e-09    -8.112    -8.105     0.007     47.96
   CaHSO4+         7.864e-10   6.263e-10    -9.104    -9.203    -0.099     (0)  
   FeHSO4+         3.644e-15   2.901e-15   -14.438   -14.537    -0.099     (0)  
   FeSO4+          4.632e-23   3.704e-23   -22.334   -22.431    -0.097     (0)  
   Fe(SO4)2-       5.075e-24   4.041e-24   -23.295   -23.393    -0.099     (0)  
   FeHSO4+2        4.661e-30   1.875e-30   -29.331   -29.727    -0.396     (0)  

------------------------------Saturation indices-------------------------------

  Phase               SI** log IAP   log K(298 K,   1 atm)

  Anhydrite        -0.23     -4.55   -4.31  CaSO4
  Aragonite        -0.11     -8.45   -8.34  CaCO3
  Calcite          -0.00     -8.45   -8.45  CaCO3
  CH4(g)          -11.01    -13.81   -2.80  CH4
  CO2(g)           -3.50     -4.97   -1.47  CO2	 Pressure   0.0 atm, phi 1.000
  Fe(OH)3(a)       -5.89     -1.00    4.89  Fe(OH)3
  FeS(ppt)         -5.54     -9.46   -3.92  FeS
  Goethite          0.00     -1.00   -1.00  FeOOH
  Gypsum            0.00     -4.55   -4.55  CaSO4:2H2O
  H2(g)            -8.36    -11.46   -3.10  H2
  H2O(g)           -1.50     -0.00    1.50  H2O
  H2S(g)           -9.39    -17.33   -7.94  H2S
  Halite           -4.99     -3.42    1.57  NaCl
  Hematite          2.01     -2.00   -4.01  Fe2O3
  Mackinawite      -4.81     -9.46   -4.65  FeS
  Melanterite      -7.68     -9.89   -2.21  FeSO4:7H2O
  Mirabilite       -5.04     -5.74   -0.71  Na2SO4:10H2O
  O2(g)           -66.56    -69.45   -2.89  O2
  Pyrite           -0.00    -18.48  -18.48  FeS2
  Siderite         -2.89    -13.78  -10.89  FeCO3
  Sulfur           -6.96     -2.08    4.88  S
  Thenardite       -6.39     -5.74    0.65  Na2SO4

**For a gas, SI = log10(fugacity). Fugacity = pressure * phi / 1 atm.
  For ideal gases, phi = 1.

------------------
End of simulation.
------------------

------------------------------------
Reading input data for simulation 2.
------------------------------------

