   Input file: ../examples/ex7
  Output file: ex7.out
Database file: ../database/phreeqc.dat

------------------
Reading data base.
------------------

	SOLUTION_MASTER_SPECIES
	SOLUTION_SPECIES
	PHASES
	GAS_BINARY_PARAMETERS
	EXCHANGE_MASTER_SPECIES
	EXCHANGE_SPECIES
	SURFACE_MASTER_SPECIES
	SURFACE_SPECIES
	MEAN_GAMMAS
	RATES
	END
------------------------------------
Reading input data for simulation 1.
------------------------------------

	TITLE Example 7.--Organic decomposition with fixed-pressure and
	                  fixed-volume gas phases
	SOLUTION_MASTER_SPECIES
	N(-3)    NH4+           0.0     N
	SOLUTION_SPECIES
	NH4+ = NH3 + H+
	        log_k           -9.252
	        delta_h 12.48   kcal
	        analytical_expression    0.6322    -0.001225     -2835.76
	NO3- + 10 H+ + 8 e- = NH4+ + 3 H2O
	        log_k           119.077
	        delta_h -187.055        kcal
	        gamma    2.5000    0.0000
	PHASES
	NH3(g)
	        NH3 = NH3
	        log_k           1.770
	        delta_h -8.170  kcal
	SOLUTION 1
	EQUILIBRIUM_PHASES 1
	        Calcite
	        CO2(g)  -1.5
	SAVE solution 1
	SELECTED_OUTPUT
	        reset false
	        file ex7.sel
	        simulation     true
	        state          true
	        reaction       true
	        si CO2(g) CH4(g) N2(g) NH3(g)
	        gases CO2(g) CH4(g) N2(g) NH3(g)
	END
-----
TITLE
-----

 Example 7.--Organic decomposition with fixed-pressure and
                  fixed-volume gas phases

-------------------------------------------
Beginning of initial solution calculations.
-------------------------------------------

Initial solution 1.	

-----------------------------Solution composition------------------------------

	Elements           Molality       Moles

	Pure water     

----------------------------Description of solution----------------------------

                                       pH  =   7.000    
                                       pe  =   4.000    
      Specific Conductance (µS/cm,  25°C)  = 0
                          Density (g/cm³)  =   0.99704
                               Volume (L)  =   1.00297
                        Viscosity (mPa s)  =   0.89002
                        Activity of water  =   1.000
                 Ionic strength (mol/kgw)  =   1.007e-07
                       Mass of water (kg)  =   1.000e+00
                 Total alkalinity (eq/kg)  =   1.217e-09
                         Temperature (°C)  =  25.00
                  Electrical balance (eq)  =  -1.217e-09
 Percent error, 100*(Cat-|An|)/(Cat+|An|)  =  -0.60
                               Iterations  =   0
                                  Total H  = 1.110124e+02
                                  Total O  = 5.550622e+01

----------------------------Distribution of species----------------------------

                                               Log       Log       Log    mole V
   Species          Molality    Activity  Molality  Activity     Gamma   cm³/mol

   OH-             1.013e-07   1.012e-07    -6.995    -6.995    -0.000     -4.14
   H+              1.001e-07   1.000e-07    -7.000    -7.000    -0.000      0.00
   H2O             5.551e+01   1.000e+00     1.744     0.000     0.000     18.07
H(0)          1.416e-25
   H2              7.079e-26   7.079e-26   -25.150   -25.150     0.000     14.99
O(0)          0.000e+00
   O2              0.000e+00   0.000e+00   -42.063   -42.063     0.000     30.40

------------------------------Saturation indices-------------------------------

  Phase               SI** log IAP   log K(298 K,   1 atm)

  H2(g)           -22.05    -25.15   -3.10  H2
  H2O(g)           -1.50      0.00    1.50  H2O
  O2(g)           -39.17    -42.06   -2.89  O2

**For a gas, SI = log10(fugacity). Fugacity = pressure * phi / 1 atm.
  For ideal gases, phi = 1.

-----------------------------------------
Beginning of batch-reaction calculations.
-----------------------------------------

Reaction step 1.

Using solution 1.	
Using pure phase assemblage 1.	

-------------------------------Phase assemblage--------------------------------

                                                      Moles in assemblage
Phase               SI  log IAP  log K(T, P)   Initial       Final       Delta

CO2(g)           -1.50    -2.97     -1.47    1.000e+01   9.996e+00  -3.563e-03
Calcite           0.00    -8.45     -8.45    1.000e+01   9.998e+00  -2.497e-03

-----------------------------Solution composition------------------------------

	Elements           Molality       Moles

	C                 6.060e-03   6.060e-03
	Ca                2.497e-03   2.497e-03

----------------------------Description of solution----------------------------

                                       pH  =   6.979      Charge balance
                                       pe  =  -1.257      Adjusted to redox equilibrium
      Specific Conductance (µS/cm,  25°C)  = 466
                          Density (g/cm³)  =   0.99738
                               Volume (L)  =   1.00304
                        Viscosity (mPa s)  =   0.89277
                        Activity of water  =   1.000
                 Ionic strength (mol/kgw)  =   7.477e-03
                       Mass of water (kg)  =   1.000e+00
                 Total alkalinity (eq/kg)  =   4.995e-03
                       Total CO2 (mol/kg)  =   6.060e-03
                         Temperature (°C)  =  25.00
                  Electrical balance (eq)  =  -1.240e-09
 Percent error, 100*(Cat-|An|)/(Cat+|An|)  =  -0.00
                               Iterations  =  16
                                  Total H  = 1.110124e+02
                                  Total O  = 5.552083e+01

----------------------------Distribution of species----------------------------

                                               Log       Log       Log    mole V
   Species          Molality    Activity  Molality  Activity     Gamma   cm³/mol

   H+              1.138e-07   1.050e-07    -6.944    -6.979    -0.035      0.00
   OH-             1.057e-07   9.641e-08    -6.976    -7.016    -0.040     -4.05
   H2O             5.551e+01   9.999e-01     1.744    -0.000     0.000     18.07
C(-4)         4.443e-25
   CH4             4.443e-25   4.451e-25   -24.352   -24.352     0.001     35.46
C(4)          6.060e-03
   HCO3-           4.977e-03   4.558e-03    -2.303    -2.341    -0.038     24.67
   CO2             1.075e-03   1.076e-03    -2.969    -2.968     0.000     34.79
   CaCO3           5.979e-06   5.989e-06    -5.223    -5.223     0.001    -14.60
   CO3-2           2.896e-06   2.036e-06    -5.538    -5.691    -0.153     -4.42
   (CO2)2          1.880e-08   1.882e-08    -7.726    -7.725     0.000     68.75
   CaHCO3+         7.630e-10   6.996e-10    -9.117    -9.155    -0.038      9.71
Ca            2.497e-03
   Ca+2            2.491e-03   1.751e-03    -2.604    -2.757    -0.153    -17.97
   CaCO3           5.979e-06   5.989e-06    -5.223    -5.223     0.001    -14.60
   CaOH+           3.031e-09   2.767e-09    -8.518    -8.558    -0.039     (0)  
   CaHCO3+         7.630e-10   6.996e-10    -9.117    -9.155    -0.038      9.71
H(0)          5.091e-15
   H2              2.546e-15   2.550e-15   -14.594   -14.593     0.001     14.99
O(0)          0.000e+00
   O2              0.000e+00   0.000e+00   -63.177   -63.176     0.001     30.40

------------------------------Saturation indices-------------------------------

  Phase               SI** log IAP   log K(298 K,   1 atm)

  Aragonite        -0.11     -8.45   -8.34  CaCO3
  Calcite           0.00     -8.45   -8.45  CaCO3
  CH4(g)          -21.55    -24.35   -2.80  CH4
  CO2(g)           -1.50     -2.97   -1.47  CO2	 Pressure   0.0 atm, phi 1.000
  H2(g)           -11.49    -14.59   -3.10  H2
  H2O(g)           -1.50     -0.00    1.50  H2O
  O2(g)           -60.28    -63.18   -2.89  O2

**For a gas, SI = log10(fugacity). Fugacity = pressure * phi / 1 atm.
  For ideal gases, phi = 1.

------------------
End of simulation.
------------------

------------------------------------
Reading input data for simulation 2.
------------------------------------

	USE solution 1
	GAS_PHASE 1 Fixed-pressure gas phase
	        fixed_pressure
	        pressure       1.1
	        CO2(g)          0.0
	        CH4(g)          0.0
	        N2(g)           0.0
	        H2O(g)          0.0
	REACTION 1
	        CH2O(NH3)0.07     1.0
	        1. 2. 3. 4. 8. 16. 32 64. 125. 250. 500. 1000. mmol
	USER_GRAPH 1 Example 7
	        -headings Fixed_Pressure: CH4 CO2 N2 H2O #Volume
	        -chart_title "Gas Composition"
	        -axis_titles "Organic matter reacted, in millimoles"         	     "Log(Partial pressure, in atmospheres)" "Volume, in liters"
	        -axis_scale x_axis 1 1e3 auto auto log
	        -axis_scale y_axis -5.0 1.0 1 1
	        -connect_simulations false
	  -start
	  10 IF GAS("CH4(g)") < 1e-10 THEN GOTO 100
	  20 mM_OM = RXN * 1e3
	  30 PLOT_XY -10, -10, line_width = 0, symbol_size = 0
	  40 PLOT_XY mM_OM, SI("CH4(g)"), color = Black, symbol = XCross
	  50 PLOT_XY mM_OM, SI("CO2(g)"), color = Red, symbol = XCross
	  60 PLOT_XY mM_OM, SI("N2(g)"), color = Teal, symbol = XCross
	  70 PLOT_XY mM_OM, SI("H2O(g)"), color = Blue, symbol = XCross
	  100 REM end of program
	  -end
	USER_GRAPH 2 Example 7
	        -headings  Fixed_P:...Pressure Fixed_P:...Volume
	        -chart_title             "Total Gas Pressure and Volume"
	        -axis_titles "Organic matter reacted, in millimoles"                      "Log(Pressure, in atmospheres)" "Volume, in liters"
	        -axis_scale x_axis 1 1e3 auto auto log
	        -axis_scale y_axis -5.0 1.0 1 1
	        -axis_scale y2_axis 1e-3 1e5 auto auto log
	        -connect_simulations false
	  -start
	  10 IF GAS("CH4(g)") < 1e-10 THEN GOTO 100
	  20 mM_OM = RXN * 1e3
	  30 moles = (GAS("CH4(g)") + GAS("CO2(g)") + GAS("N2(g)") + GAS("H2O(g)"))
	  40 vol = moles * 0.08207 * TK / 1.1
	  50 PLOT_XY mM_OM, LOG10(1.1), color = Magenta, symbol = XCross
	  60 PLOT_XY mM_OM, vol, color = Cyan, symbol = XCross, y_axis = 2
	  100 REM end of program
	  -end
	END
-----------------------------------------
Beginning of batch-reaction calculations.
-----------------------------------------

Reaction step 1.

Using solution 1.	Solution after simulation 1.
Using gas phase 1.	Fixed-pressure gas phase
Using reaction 1.	

Reaction 1.	

	  1.000e-03 moles of the following reaction have been added:

	                 Relative
	Reactant            moles

	CH2O(NH3)0.07        1.00000

	                 Relative
	Element             moles
	C                    1.00000
	H                    2.21000
	N                    0.07000
	O                    1.00000

----------------Fixed-pressure gas phase 1 dissolved completely----------------

-----------------------------Solution composition------------------------------

	Elements           Molality       Moles

	C                 7.060e-03   7.060e-03
	Ca                2.497e-03   2.497e-03
	N                 7.000e-05   7.000e-05

----------------------------Description of solution----------------------------

                                       pH  =   6.840      Charge balance
                                       pe  =  -3.731      Adjusted to redox equilibrium
      Specific Conductance (µS/cm,  25°C)  = 469
                          Density (g/cm³)  =   0.99738
                               Volume (L)  =   1.00306
                        Viscosity (mPa s)  =   0.89280
                        Activity of water  =   1.000
                 Ionic strength (mol/kgw)  =   7.551e-03
                       Mass of water (kg)  =   1.000e+00
                 Total alkalinity (eq/kg)  =   5.064e-03
                       Total CO2 (mol/kg)  =   6.560e-03
                         Temperature (°C)  =  25.00
                           Pressure (atm)  =  1.10
                  Electrical balance (eq)  =  -1.240e-09
 Percent error, 100*(Cat-|An|)/(Cat+|An|)  =  -0.00
                               Iterations  =  10
                                  Total H  = 1.110146e+02
                                  Total O  = 5.552183e+01

----------------------------Distribution of species----------------------------

                                               Log       Log       Log    mole V
   Species          Molality    Activity  Molality  Activity     Gamma   cm³/mol

   H+              1.569e-07   1.447e-07    -6.804    -6.840    -0.035      0.00
   OH-             7.676e-08   6.996e-08    -7.115    -7.155    -0.040     -4.05
   H2O             5.551e+01   9.998e-01     1.744    -0.000     0.000     18.07
C(-4)         5.001e-04
   CH4             5.001e-04   5.009e-04    -3.301    -3.300     0.001     35.46
C(4)          6.560e-03
   HCO3-           5.051e-03   4.624e-03    -2.297    -2.335    -0.038     24.67
   CO2             1.503e-03   1.504e-03    -2.823    -2.823     0.000     34.79
   CaCO3           4.397e-06   4.405e-06    -5.357    -5.356     0.001    -14.60
   CO3-2           2.135e-06   1.499e-06    -5.671    -5.824    -0.154     -4.41
   (CO2)2          3.675e-08   3.679e-08    -7.435    -7.434     0.000     68.75
   CaHCO3+         7.737e-10   7.092e-10    -9.111    -9.149    -0.038      9.71
Ca            2.497e-03
   Ca+2            2.493e-03   1.749e-03    -2.603    -2.757    -0.154    -17.96
   CaCO3           4.397e-06   4.405e-06    -5.357    -5.356     0.001    -14.60
   CaOH+           2.198e-09   2.006e-09    -8.658    -8.698    -0.040     (0)  
   CaHCO3+         7.737e-10   7.092e-10    -9.111    -9.149    -0.038      9.71
H(0)          8.575e-10
   H2              4.288e-10   4.295e-10    -9.368    -9.367     0.001     14.99
N(-3)         6.986e-05
   NH4+            6.961e-05   6.329e-05    -4.157    -4.199    -0.041     (0)  
   NH3             2.489e-07   2.493e-07    -6.604    -6.603     0.001     (0)  
N(0)          1.442e-07
   N2              7.210e-08   7.223e-08    -7.142    -7.141     0.001     29.29
N(3)          0.000e+00
   NO2-            0.000e+00   0.000e+00   -62.335   -62.376    -0.041     25.02
N(5)          0.000e+00
   NO3-            0.000e+00   0.000e+00   -84.688   -84.729    -0.041     29.54
O(0)          0.000e+00
   O2              0.000e+00   0.000e+00   -73.629   -73.629     0.001     30.40

------------------------------Saturation indices-------------------------------

  Phase               SI** log IAP   log K(298 K,   1 atm)

  Aragonite        -0.25     -8.58   -8.34  CaCO3
  Calcite          -0.13     -8.58   -8.45  CaCO3
  CH4(g)           -0.50     -3.30   -2.80  CH4
  CO2(g)           -1.35     -2.82   -1.47  CO2
  H2(g)            -6.27     -9.37   -3.10  H2
  H2O(g)           -1.50     -0.00    1.50  H2O
  N2(g)            -3.97     -7.14   -3.18  N2
  NH3(g)           -8.37     -6.60    1.77  NH3
  O2(g)           -70.74    -73.63   -2.89  O2

**For a gas, SI = log10(fugacity). Fugacity = pressure * phi / 1 atm.
  For ideal gases, phi = 1.

Reaction step 2.

Using solution 1.	Solution after simulation 1.
Using gas phase 1.	Fixed-pressure gas phase
Using reaction 1.	

Reaction 1.	

	  2.000e-03 moles of the following reaction have been added:

	                 Relative
	Reactant            moles

	CH2O(NH3)0.07        1.00000

	                 Relative
	Element             moles
	C                    1.00000
	H                    2.21000
	N                    0.07000
	O                    1.00000

----------------Fixed-pressure gas phase 1 dissolved completely----------------

-----------------------------Solution composition------------------------------

	Elements           Molality       Moles

	C                 8.061e-03   8.060e-03
	Ca                2.497e-03   2.497e-03
	N                 1.400e-04   1.400e-04

----------------------------Description of solution----------------------------

                                       pH  =   6.737      Charge balance
                                       pe  =  -3.652      Adjusted to redox equilibrium
      Specific Conductance (µS/cm,  25°C)  = 471
                          Density (g/cm³)  =   0.99738
                               Volume (L)  =   1.00310
                        Viscosity (mPa s)  =   0.89284
                        Activity of water  =   1.000
                 Ionic strength (mol/kgw)  =   7.623e-03
                       Mass of water (kg)  =   1.000e+00
                 Total alkalinity (eq/kg)  =   5.134e-03
                       Total CO2 (mol/kg)  =   7.060e-03
                         Temperature (°C)  =  25.00
                           Pressure (atm)  =  1.10
                  Electrical balance (eq)  =  -1.240e-09
 Percent error, 100*(Cat-|An|)/(Cat+|An|)  =  -0.00
                               Iterations  =  15
                                  Total H  = 1.110169e+02
                                  Total O  = 5.552283e+01

----------------------------Distribution of species----------------------------

                                               Log       Log       Log    mole V
   Species          Molality    Activity  Molality  Activity     Gamma   cm³/mol

   H+              1.990e-07   1.834e-07    -6.701    -6.737    -0.035      0.00
   OH-             6.057e-08   5.518e-08    -7.218    -7.258    -0.040     -4.05
   H2O             5.551e+01   9.998e-01     1.744    -0.000     0.000     18.07
C(-4)         1.000e-03
   CH4             1.000e-03   1.002e-03    -3.000    -2.999     0.001     35.46
C(4)          7.060e-03
   HCO3-           5.124e-03   4.689e-03    -2.290    -2.329    -0.038     24.67
   CO2             1.931e-03   1.934e-03    -2.714    -2.714     0.001     34.79
   CaCO3           3.513e-06   3.520e-06    -5.454    -5.454     0.001    -14.60
   CO3-2           1.710e-06   1.199e-06    -5.767    -5.921    -0.154     -4.41
   (CO2)2          6.071e-08   6.078e-08    -7.217    -7.216     0.001     68.75
   CaHCO3+         7.839e-10   7.183e-10    -9.106    -9.144    -0.038      9.71
Ca            2.497e-03
   Ca+2            2.494e-03   1.747e-03    -2.603    -2.758    -0.155    -17.96
   CaCO3           3.513e-06   3.520e-06    -5.454    -5.454     0.001    -14.60
   CaOH+           1.732e-09   1.581e-09    -8.761    -8.801    -0.040     (0)  
   CaHCO3+         7.839e-10   7.183e-10    -9.106    -9.144    -0.038      9.71
H(0)          9.577e-10
   H2              4.788e-10   4.797e-10    -9.320    -9.319     0.001     14.99
N(-3)         1.397e-04
   NH4+            1.394e-04   1.266e-04    -3.856    -3.897    -0.042     (0)  
   NH3             3.928e-07   3.935e-07    -6.406    -6.405     0.001     (0)  
N(0)          2.579e-07
   N2              1.290e-07   1.292e-07    -6.890    -6.889     0.001     29.29
N(3)          0.000e+00
   NO2-            0.000e+00   0.000e+00   -62.383   -62.424    -0.041     25.02
N(5)          0.000e+00
   NO3-            0.000e+00   0.000e+00   -84.784   -84.825    -0.041     29.54
O(0)          0.000e+00
   O2              0.000e+00   0.000e+00   -73.726   -73.725     0.001     30.40

------------------------------Saturation indices-------------------------------

  Phase               SI** log IAP   log K(298 K,   1 atm)

  Aragonite        -0.34     -8.68   -8.34  CaCO3
  Calcite          -0.23     -8.68   -8.45  CaCO3
  CH4(g)           -0.20     -3.00   -2.80  CH4
  CO2(g)           -1.25     -2.71   -1.47  CO2
  H2(g)            -6.22     -9.32   -3.10  H2
  H2O(g)           -1.50     -0.00    1.50  H2O
  N2(g)            -3.71     -6.89   -3.18  N2
  NH3(g)           -8.18     -6.41    1.77  NH3
  O2(g)           -70.83    -73.72   -2.89  O2

**For a gas, SI = log10(fugacity). Fugacity = pressure * phi / 1 atm.
  For ideal gases, phi = 1.

Reaction step 3.

Using solution 1.	Solution after simulation 1.
Using gas phase 1.	Fixed-pressure gas phase
Using reaction 1.	

Reaction 1.	

	  3.000e-03 moles of the following reaction have been added:

	                 Relative
	Reactant            moles

	CH2O(NH3)0.07        1.00000

	                 Relative
	Element             moles
	C                    1.00000
	H                    2.21000
	N                    0.07000
	O                    1.00000

----------------Fixed-pressure gas phase 1 dissolved completely----------------

-----------------------------Solution composition------------------------------

	Elements           Molality       Moles

	C                 9.061e-03   9.060e-03
	Ca                2.497e-03   2.497e-03
	N                 2.100e-04   2.100e-04

----------------------------Description of solution----------------------------

                                       pH  =   6.655      Charge balance
                                       pe  =  -3.582      Adjusted to redox equilibrium
      Specific Conductance (µS/cm,  25°C)  = 474
                          Density (g/cm³)  =   0.99738
                               Volume (L)  =   1.00313
                        Viscosity (mPa s)  =   0.89288
                        Activity of water  =   1.000
                 Ionic strength (mol/kgw)  =   7.694e-03
                       Mass of water (kg)  =   1.000e+00
                 Total alkalinity (eq/kg)  =   5.204e-03
                       Total CO2 (mol/kg)  =   7.560e-03
                         Temperature (°C)  =  25.00
                           Pressure (atm)  =  1.10
                  Electrical balance (eq)  =  -1.240e-09
 Percent error, 100*(Cat-|An|)/(Cat+|An|)  =  -0.00
                               Iterations  =  14
                                  Total H  = 1.110191e+02
                                  Total O  = 5.552383e+01

----------------------------Distribution of species----------------------------

                                               Log       Log       Log    mole V
   Species          Molality    Activity  Molality  Activity     Gamma   cm³/mol

   H+              2.400e-07   2.211e-07    -6.620    -6.655    -0.036      0.00
   OH-             5.025e-08   4.576e-08    -7.299    -7.339    -0.041     -4.05
   H2O             5.551e+01   9.998e-01     1.744    -0.000     0.000     18.07
C(-4)         1.500e-03
   CH4             1.500e-03   1.503e-03    -2.824    -2.823     0.001     35.46
C(4)          7.560e-03
   HCO3-           5.195e-03   4.753e-03    -2.284    -2.323    -0.039     24.67
   CO2             2.361e-03   2.363e-03    -2.627    -2.626     0.001     34.79
   CaCO3           2.950e-06   2.955e-06    -5.530    -5.529     0.001    -14.60
   CO3-2           1.440e-06   1.008e-06    -5.842    -5.997    -0.155     -4.41
   (CO2)2          9.070e-08   9.080e-08    -7.042    -7.042     0.001     68.75
   CaHCO3+         7.939e-10   7.272e-10    -9.100    -9.138    -0.038      9.71
Ca            2.497e-03
   Ca+2            2.494e-03   1.745e-03    -2.603    -2.758    -0.155    -17.96
   CaCO3           2.950e-06   2.955e-06    -5.530    -5.529     0.001    -14.60
   CaOH+           1.436e-09   1.309e-09    -8.843    -8.883    -0.040     (0)  
   CaHCO3+         7.939e-10   7.272e-10    -9.100    -9.138    -0.038      9.71
H(0)          1.008e-09
   H2              5.040e-10   5.049e-10    -9.298    -9.297     0.001     14.99
N(-3)         2.097e-04
   NH4+            2.092e-04   1.900e-04    -3.679    -3.721    -0.042     (0)  
   NH3             4.888e-07   4.897e-07    -6.311    -6.310     0.001     (0)  
N(0)          3.425e-07
   N2              1.713e-07   1.716e-07    -6.766    -6.766     0.001     29.29
N(3)          0.000e+00
   NO2-            0.000e+00   0.000e+00   -62.436   -62.477    -0.041     25.02
N(5)          0.000e+00
   NO3-            0.000e+00   0.000e+00   -84.860   -84.901    -0.041     29.54
O(0)          0.000e+00
   O2              0.000e+00   0.000e+00   -73.770   -73.769     0.001     30.40

------------------------------Saturation indices-------------------------------

  Phase               SI** log IAP   log K(298 K,   1 atm)

  Aragonite        -0.42     -8.75   -8.34  CaCO3
  Calcite          -0.31     -8.75   -8.45  CaCO3
  CH4(g)           -0.02     -2.82   -2.80  CH4
  CO2(g)           -1.16     -2.63   -1.47  CO2
  H2(g)            -6.20     -9.30   -3.10  H2
  H2O(g)           -1.50     -0.00    1.50  H2O
  N2(g)            -3.59     -6.77   -3.18  N2
  NH3(g)           -8.08     -6.31    1.77  NH3
  O2(g)           -70.88    -73.77   -2.89  O2

**For a gas, SI = log10(fugacity). Fugacity = pressure * phi / 1 atm.
  For ideal gases, phi = 1.

Reaction step 4.

Using solution 1.	Solution after simulation 1.
Using gas phase 1.	Fixed-pressure gas phase
Using reaction 1.	

Reaction 1.	

	  4.000e-03 moles of the following reaction have been added:

	                 Relative
	Reactant            moles

	CH2O(NH3)0.07        1.00000

	                 Relative
	Element             moles
	C                    1.00000
	H                    2.21000
	N                    0.07000
	O                    1.00000

-----------------------------------Gas phase-----------------------------------

Total pressure:  1.10      atmospheres          (Peng-Robinson calculation)
    Gas volume:   1.11e-02 liters
  Molar volume:   2.22e+01 liters/mole
   P * Vm / RT:  0.99723  (Compressibility Factor Z) 

                                                        Moles in gas
                                            ----------------------------------
Component         log P           P    phi     Initial       Final       Delta

CH4(g)            -0.01   9.866e-01  0.998   0.000e+00   4.503e-04   4.503e-04
CO2(g)            -1.09   8.148e-02  0.994   0.000e+00   3.719e-05   3.719e-05
H2O(g)            -1.50   3.157e-02  0.995   0.000e+00   1.441e-05   1.441e-05
N2(g)             -3.42   3.767e-04  1.000   0.000e+00   1.719e-07   1.719e-07

-----------------------------Solution composition------------------------------

	Elements           Molality       Moles

	C                 9.573e-03   9.573e-03
	Ca                2.497e-03   2.497e-03
	N                 2.797e-04   2.797e-04

----------------------------Description of solution----------------------------

                                       pH  =   6.594      Charge balance
                                       pe  =  -3.514      Adjusted to redox equilibrium
      Specific Conductance (µS/cm,  25°C)  = 477
                          Density (g/cm³)  =   0.99738
                               Volume (L)  =   1.00315
                        Viscosity (mPa s)  =   0.89292
                        Activity of water  =   1.000
                 Ionic strength (mol/kgw)  =   7.764e-03
                       Mass of water (kg)  =   9.999e-01
                 Total alkalinity (eq/kg)  =   5.274e-03
                       Total CO2 (mol/kg)  =   8.023e-03
                         Temperature (°C)  =  25.00
                           Pressure (atm)  =  1.10
                  Electrical balance (eq)  =  -1.240e-09
 Percent error, 100*(Cat-|An|)/(Cat+|An|)  =  -0.00
                               Iterations  =  20
                                  Total H  = 1.110194e+02
                                  Total O  = 5.552475e+01

----------------------------Distribution of species----------------------------

                                               Log       Log       Log    mole V
   Species          Molality    Activity  Molality  Activity     Gamma   cm³/mol

   H+              2.763e-07   2.546e-07    -6.559    -6.594    -0.036      0.00
   OH-             4.367e-08   3.976e-08    -7.360    -7.401    -0.041     -4.05
   H2O             5.551e+01   9.998e-01     1.744    -0.000     0.000     18.07
C(-4)         1.550e-03
   CH4             1.550e-03   1.553e-03    -2.810    -2.809     0.001     35.46
C(4)          8.023e-03
   HCO3-           5.266e-03   4.816e-03    -2.279    -2.317    -0.039     24.67
   CO2             2.753e-03   2.756e-03    -2.560    -2.560     0.001     34.79
   CaCO3           2.593e-06   2.598e-06    -5.586    -5.585     0.001    -14.60
   CO3-2           1.269e-06   8.873e-07    -5.896    -6.052    -0.155     -4.41
   (CO2)2          1.234e-07   1.235e-07    -6.909    -6.908     0.001     68.75
   CaHCO3+         8.037e-10   7.359e-10    -9.095    -9.133    -0.038      9.71
Ca            2.497e-03
   Ca+2            2.495e-03   1.743e-03    -2.603    -2.759    -0.156    -17.96
   CaCO3           2.593e-06   2.598e-06    -5.586    -5.585     0.001    -14.60
   CaOH+           1.246e-09   1.136e-09    -8.904    -8.945    -0.040     (0)  
   CaHCO3+         8.037e-10   7.359e-10    -9.095    -9.133    -0.038      9.71
H(0)          9.779e-10
   H2              4.889e-10   4.899e-10    -9.311    -9.310     0.001     14.99
N(-3)         2.792e-04
   NH4+            2.786e-04   2.530e-04    -3.555    -3.597    -0.042     (0)  
   NH3             5.653e-07   5.663e-07    -6.248    -6.247     0.001     (0)  
N(0)          5.018e-07
   N2              2.509e-07   2.513e-07    -6.601    -6.600     0.001     29.29
N(3)          0.000e+00
   NO2-            0.000e+00   0.000e+00   -62.395   -62.436    -0.041     25.02
N(5)          0.000e+00
   NO3-            0.000e+00   0.000e+00   -84.805   -84.846    -0.041     29.54
O(0)          0.000e+00
   O2              0.000e+00   0.000e+00   -73.744   -73.743     0.001     30.40

------------------------------Saturation indices-------------------------------

  Phase               SI** log IAP   log K(298 K,   1 atm)

  Aragonite        -0.47     -8.81   -8.34  CaCO3
  Calcite          -0.36     -8.81   -8.45  CaCO3
  CH4(g)           -0.01     -2.81   -2.80  CH4	 Pressure   1.0 atm, phi 0.998
  CO2(g)           -1.09     -2.56   -1.47  CO2	 Pressure   0.1 atm, phi 0.994
  H2(g)            -6.21     -9.31   -3.10  H2
  H2O(g)           -1.50     -0.00    1.50  H2O	 Pressure   0.0 atm, phi 0.995
  N2(g)            -3.42     -6.60   -3.18  N2	 Pressure   0.0 atm, phi 1.000
  NH3(g)           -8.02     -6.25    1.77  NH3
  O2(g)           -70.85    -73.74   -2.89  O2

**For a gas, SI = log10(fugacity). Fugacity = pressure * phi / 1 atm.
  For ideal gases, phi = 1.

Reaction step 5.

Using solution 1.	Solution after simulation 1.
Using gas phase 1.	Fixed-pressure gas phase
Using reaction 1.	

Reaction 1.	

	  8.000e-03 moles of the following reaction have been added:

	                 Relative
	Reactant            moles

	CH2O(NH3)0.07        1.00000

	                 Relative
	Element             moles
	C                    1.00000
	H                    2.21000
	N                    0.07000
	O                    1.00000

-----------------------------------Gas phase-----------------------------------

Total pressure:  1.10      atmospheres          (Peng-Robinson calculation)
    Gas volume:   6.51e-02 liters
  Molar volume:   2.22e+01 liters/mole
   P * Vm / RT:  0.99710  (Compressibility Factor Z) 

                                                        Moles in gas
                                            ----------------------------------
Component         log P           P    phi     Initial       Final       Delta

CH4(g)            -0.03   9.436e-01  0.998   0.000e+00   2.520e-03   2.520e-03
CO2(g)            -0.91   1.238e-01  0.994   0.000e+00   3.306e-04   3.306e-04
H2O(g)            -1.50   3.158e-02  0.995   0.000e+00   8.433e-05   8.433e-05
N2(g)             -3.00   1.000e-03  1.000   0.000e+00   2.672e-06   2.672e-06

-----------------------------Solution composition------------------------------

	Elements           Molality       Moles

	C                 1.121e-02   1.121e-02
	Ca                2.497e-03   2.497e-03
	N                 5.547e-04   5.547e-04

----------------------------Description of solution----------------------------

                                       pH  =   6.434      Charge balance
                                       pe  =  -3.329      Adjusted to redox equilibrium
      Specific Conductance (µS/cm,  25°C)  = 487
                          Density (g/cm³)  =   0.99741
                               Volume (L)  =   1.00319
                        Viscosity (mPa s)  =   0.89306
                        Activity of water  =   1.000
                 Ionic strength (mol/kgw)  =   8.040e-03
                       Mass of water (kg)  =   9.999e-01
                 Total alkalinity (eq/kg)  =   5.548e-03
                       Total CO2 (mol/kg)  =   9.728e-03
                         Temperature (°C)  =  25.00
                           Pressure (atm)  =  1.10
                  Electrical balance (eq)  =  -1.240e-09
 Percent error, 100*(Cat-|An|)/(Cat+|An|)  =  -0.00
                               Iterations  =  21
                                  Total H  = 1.110199e+02
                                  Total O  = 5.552809e+01

----------------------------Distribution of species----------------------------

                                               Log       Log       Log    mole V
   Species          Molality    Activity  Molality  Activity     Gamma   cm³/mol

   H+              3.998e-07   3.679e-07    -6.398    -6.434    -0.036      0.00
   OH-             3.026e-08   2.751e-08    -7.519    -7.561    -0.041     -4.04
   H2O             5.551e+01   9.998e-01     1.744    -0.000     0.000     18.07
C(-4)         1.483e-03
   CH4             1.483e-03   1.485e-03    -2.829    -2.828     0.001     35.46
C(4)          9.728e-03
   HCO3-           5.542e-03   5.061e-03    -2.256    -2.296    -0.039     24.68
   CO2             4.182e-03   4.187e-03    -2.379    -2.378     0.001     34.79
   CaCO3           1.876e-06   1.879e-06    -5.727    -5.726     0.001    -14.60
   CO3-2           9.280e-07   6.452e-07    -6.032    -6.190    -0.158     -4.40
   (CO2)2          2.847e-07   2.851e-07    -6.546    -6.545     0.001     68.75
   CaHCO3+         8.415e-10   7.694e-10    -9.075    -9.114    -0.039      9.71
Ca            2.497e-03
   Ca+2            2.495e-03   1.734e-03    -2.603    -2.761    -0.158    -17.96
   CaCO3           1.876e-06   1.879e-06    -5.727    -5.726     0.001    -14.60
   CaOH+           8.589e-10   7.820e-10    -9.066    -9.107    -0.041     (0)  
   CaHCO3+         8.415e-10   7.694e-10    -9.075    -9.114    -0.039      9.71
H(0)          8.710e-10
   H2              4.355e-10   4.364e-10    -9.361    -9.360     0.001     14.99
N(-3)         5.534e-04
   NH4+            5.526e-04   5.010e-04    -3.258    -3.300    -0.043     (0)  
   NH3             7.745e-07   7.760e-07    -6.111    -6.110     0.001     (0)  
N(0)          1.333e-06
   N2              6.663e-07   6.675e-07    -6.176    -6.176     0.001     29.29
N(3)          0.000e+00
   NO2-            0.000e+00   0.000e+00   -62.266   -62.308    -0.042     25.02
N(5)          0.000e+00
   NO3-            0.000e+00   0.000e+00   -84.626   -84.668    -0.042     29.54
O(0)          0.000e+00
   O2              0.000e+00   0.000e+00   -73.643   -73.642     0.001     30.40

------------------------------Saturation indices-------------------------------

  Phase               SI** log IAP   log K(298 K,   1 atm)

  Aragonite        -0.62     -8.95   -8.34  CaCO3
  Calcite          -0.50     -8.95   -8.45  CaCO3
  CH4(g)           -0.03     -2.83   -2.80  CH4	 Pressure   0.9 atm, phi 0.998
  CO2(g)           -0.91     -2.38   -1.47  CO2	 Pressure   0.1 atm, phi 0.994
  H2(g)            -6.26     -9.36   -3.10  H2
  H2O(g)           -1.50     -0.00    1.50  H2O	 Pressure   0.0 atm, phi 0.995
  N2(g)            -3.00     -6.18   -3.18  N2	 Pressure   0.0 atm, phi 1.000
  NH3(g)           -7.88     -6.11    1.77  NH3
  O2(g)           -70.75    -73.64   -2.89  O2

**For a gas, SI = log10(fugacity). Fugacity = pressure * phi / 1 atm.
  For ideal gases, phi = 1.

Reaction step 6.

Using solution 1.	Solution after simulation 1.
Using gas phase 1.	Fixed-pressure gas phase
Using reaction 1.	

Reaction 1.	

	  1.600e-02 moles of the following reaction have been added:

	                 Relative
	Reactant            moles

	CH2O(NH3)0.07        1.00000

	                 Relative
	Element             moles
	C                    1.00000
	H                    2.21000
	N                    0.07000
	O                    1.00000

-----------------------------------Gas phase-----------------------------------

Total pressure:  1.10      atmospheres          (Peng-Robinson calculation)
    Gas volume:   1.86e-01 liters
  Molar volume:   2.22e+01 liters/mole
   P * Vm / RT:  0.99690  (Compressibility Factor Z) 

                                                        Moles in gas
                                            ----------------------------------
Component         log P           P    phi     Initial       Final       Delta

CH4(g)            -0.06   8.730e-01  0.998   0.000e+00   6.646e-03   6.646e-03
CO2(g)            -0.72   1.927e-01  0.994   0.000e+00   1.467e-03   1.467e-03
H2O(g)            -1.50   3.159e-02  0.994   0.000e+00   2.405e-04   2.405e-04
N2(g)             -2.56   2.730e-03  1.000   0.000e+00   2.078e-05   2.078e-05

-----------------------------Solution composition------------------------------

	Elements           Molality       Moles

	C                 1.395e-02   1.395e-02
	Ca                2.497e-03   2.497e-03
	N                 1.079e-03   1.078e-03

----------------------------Description of solution----------------------------

                                       pH  =   6.280      Charge balance
                                       pe  =  -3.147      Adjusted to redox equilibrium
      Specific Conductance (µS/cm,  25°C)  = 507
                          Density (g/cm³)  =   0.99747
                               Volume (L)  =   1.00327
                        Viscosity (mPa s)  =   0.89328
                        Activity of water  =   1.000
                 Ionic strength (mol/kgw)  =   8.563e-03
                       Mass of water (kg)  =   9.999e-01
                 Total alkalinity (eq/kg)  =   6.070e-03
                       Total CO2 (mol/kg)  =   1.258e-02
                         Temperature (°C)  =  25.00
                           Pressure (atm)  =  1.10
                  Electrical balance (eq)  =  -1.240e-09
 Percent error, 100*(Cat-|An|)/(Cat+|An|)  =  -0.00
                               Iterations  =  23
                                  Total H  = 1.110207e+02
                                  Total O  = 5.553366e+01

----------------------------Distribution of species----------------------------

                                               Log       Log       Log    mole V
   Species          Molality    Activity  Molality  Activity     Gamma   cm³/mol

   H+              5.713e-07   5.246e-07    -6.243    -6.280    -0.037      0.00
   OH-             2.128e-08   1.929e-08    -7.672    -7.715    -0.043     -4.04
   H2O             5.551e+01   9.997e-01     1.744    -0.000     0.000     18.07
C(-4)         1.371e-03
   CH4             1.371e-03   1.374e-03    -2.863    -2.862     0.001     35.46
C(4)          1.258e-02
   CO2             6.509e-03   6.517e-03    -2.186    -2.186     0.001     34.79
   HCO3-           6.065e-03   5.525e-03    -2.217    -2.258    -0.040     24.68
   CaCO3           1.422e-06   1.425e-06    -5.847    -5.846     0.001    -14.60
   CO3-2           7.177e-07   4.940e-07    -6.144    -6.306    -0.162     -4.39
   (CO2)2          6.897e-07   6.906e-07    -6.161    -6.161     0.001     68.75
   CaHCO3+         9.118e-10   8.317e-10    -9.040    -9.080    -0.040      9.72
Ca            2.497e-03
   Ca+2            2.496e-03   1.717e-03    -2.603    -2.765    -0.162    -17.95
   CaCO3           1.422e-06   1.425e-06    -5.847    -5.846     0.001    -14.60
   CaHCO3+         9.118e-10   8.317e-10    -9.040    -9.080    -0.040      9.72
   CaOH+           5.981e-10   5.431e-10    -9.223    -9.265    -0.042     (0)  
H(0)          7.647e-10
   H2              3.823e-10   3.831e-10    -9.418    -9.417     0.001     14.99
N(-3)         1.075e-03
   NH4+            1.074e-03   9.707e-04    -2.969    -3.013    -0.044     (0)  
   NH3             1.052e-06   1.055e-06    -5.978    -5.977     0.001     (0)  
N(0)          3.636e-06
   N2              1.818e-06   1.821e-06    -5.740    -5.740     0.001     29.29
N(3)          0.000e+00
   NO2-            0.000e+00   0.000e+00   -62.117   -62.160    -0.043     25.02
N(5)          0.000e+00
   NO3-            0.000e+00   0.000e+00   -84.420   -84.463    -0.043     29.55
O(0)          0.000e+00
   O2              0.000e+00   0.000e+00   -73.530   -73.530     0.001     30.40

------------------------------Saturation indices-------------------------------

  Phase               SI** log IAP   log K(298 K,   1 atm)

  Aragonite        -0.74     -9.07   -8.34  CaCO3
  Calcite          -0.62     -9.07   -8.45  CaCO3
  CH4(g)           -0.06     -2.86   -2.80  CH4	 Pressure   0.9 atm, phi 0.998
  CO2(g)           -0.72     -2.19   -1.47  CO2	 Pressure   0.2 atm, phi 0.994
  H2(g)            -6.32     -9.42   -3.10  H2
  H2O(g)           -1.50     -0.00    1.50  H2O	 Pressure   0.0 atm, phi 0.994
  N2(g)            -2.56     -5.74   -3.18  N2	 Pressure   0.0 atm, phi 1.000
  NH3(g)           -7.75     -5.98    1.77  NH3
  O2(g)           -70.64    -73.53   -2.89  O2

**For a gas, SI = log10(fugacity). Fugacity = pressure * phi / 1 atm.
  For ideal gases, phi = 1.

Reaction step 7.

Using solution 1.	Solution after simulation 1.
Using gas phase 1.	Fixed-pressure gas phase
Using reaction 1.	

Reaction 1.	

	  3.200e-02 moles of the following reaction have been added:

	                 Relative
	Reactant            moles

	CH2O(NH3)0.07        1.00000

	                 Relative
	Element             moles
	C                    1.00000
	H                    2.21000
	N                    0.07000
	O                    1.00000

-----------------------------------Gas phase-----------------------------------

Total pressure:  1.10      atmospheres          (Peng-Robinson calculation)
    Gas volume:   4.67e-01 liters
  Molar volume:   2.22e+01 liters/mole
   P * Vm / RT:  0.99662  (Compressibility Factor Z) 

                                                        Moles in gas
                                            ----------------------------------
Component         log P           P    phi     Initial       Final       Delta

CH4(g)            -0.11   7.771e-01  0.998   0.000e+00   1.489e-02   1.489e-02
CO2(g)            -0.55   2.836e-01  0.994   0.000e+00   5.436e-03   5.436e-03
H2O(g)            -1.50   3.161e-02  0.994   0.000e+00   6.057e-04   6.057e-04
N2(g)             -2.12   7.653e-03  1.000   0.000e+00   1.467e-04   1.467e-04

-----------------------------Solution composition------------------------------

	Elements           Molality       Moles

	C                 1.773e-02   1.773e-02
	Ca                2.497e-03   2.497e-03
	N                 1.947e-03   1.947e-03

----------------------------Description of solution----------------------------

                                       pH  =   6.168      Charge balance
                                       pe  =  -3.008      Adjusted to redox equilibrium
      Specific Conductance (µS/cm,  25°C)  = 540
                          Density (g/cm³)  =   0.99754
                               Volume (L)  =   1.00338
                        Viscosity (mPa s)  =   0.89361
                        Activity of water  =   1.000
                 Ionic strength (mol/kgw)  =   9.425e-03
                       Mass of water (kg)  =   9.999e-01
                 Total alkalinity (eq/kg)  =   6.931e-03
                       Total CO2 (mol/kg)  =   1.651e-02
                         Temperature (°C)  =  25.00
                           Pressure (atm)  =  1.10
                  Electrical balance (eq)  =  -1.240e-09
 Percent error, 100*(Cat-|An|)/(Cat+|An|)  =  -0.00
                               Iterations  =  22
                                  Total H  = 1.110224e+02
                                  Total O  = 5.554136e+01

----------------------------Distribution of species----------------------------

                                               Log       Log       Log    mole V
   Species          Molality    Activity  Molality  Activity     Gamma   cm³/mol

   H+              7.415e-07   6.786e-07    -6.130    -6.168    -0.038      0.00
   OH-             1.652e-08   1.491e-08    -7.782    -7.827    -0.045     -4.04
   H2O             5.551e+01   9.996e-01     1.744    -0.000     0.000     18.07
C(-4)         1.221e-03
   CH4             1.221e-03   1.223e-03    -2.913    -2.912     0.001     35.46
C(4)          1.651e-02
   CO2             9.580e-03   9.594e-03    -2.019    -2.018     0.001     34.79
   HCO3-           6.927e-03   6.286e-03    -2.159    -2.202    -0.042     24.69
   (CO2)2          1.494e-06   1.496e-06    -5.826    -5.825     0.001     68.75
   CaCO3           1.231e-06   1.234e-06    -5.910    -5.909     0.001    -14.60
   CO3-2           6.411e-07   4.345e-07    -6.193    -6.362    -0.169     -4.36
   CaHCO3+         1.025e-09   9.317e-10    -8.989    -9.031    -0.042      9.72
Ca            2.497e-03
   Ca+2            2.496e-03   1.690e-03    -2.603    -2.772    -0.169    -17.94
   CaCO3           1.231e-06   1.234e-06    -5.910    -5.909     0.001    -14.60
   CaHCO3+         1.025e-09   9.317e-10    -8.989    -9.031    -0.042      9.72
   CaOH+           4.570e-10   4.133e-10    -9.340    -9.384    -0.044     (0)  
H(0)          6.742e-10
   H2              3.371e-10   3.378e-10    -9.472    -9.471     0.001     14.99
N(-3)         1.937e-03
   NH4+            1.935e-03   1.741e-03    -2.713    -2.759    -0.046     (0)  
   NH3             1.459e-06   1.462e-06    -5.836    -5.835     0.001     (0)  
N(0)          1.019e-05
   N2              5.096e-06   5.107e-06    -5.293    -5.292     0.001     29.29
N(3)          0.000e+00
   NO2-            0.000e+00   0.000e+00   -61.921   -61.966    -0.045     25.03
N(5)          0.000e+00
   NO3-            0.000e+00   0.000e+00   -84.170   -84.215    -0.045     29.55
O(0)          0.000e+00
   O2              0.000e+00   0.000e+00   -73.421   -73.420     0.001     30.40

------------------------------Saturation indices-------------------------------

  Phase               SI** log IAP   log K(298 K,   1 atm)

  Aragonite        -0.80     -9.13   -8.34  CaCO3
  Calcite          -0.69     -9.13   -8.45  CaCO3
  CH4(g)           -0.11     -2.91   -2.80  CH4	 Pressure   0.8 atm, phi 0.998
  CO2(g)           -0.55     -2.02   -1.47  CO2	 Pressure   0.3 atm, phi 0.994
  H2(g)            -6.37     -9.47   -3.10  H2
  H2O(g)           -1.50     -0.00    1.50  H2O	 Pressure   0.0 atm, phi 0.994
  N2(g)            -2.12     -5.29   -3.18  N2	 Pressure   0.0 atm, phi 1.000
  NH3(g)           -7.60     -5.83    1.77  NH3
  O2(g)           -70.53    -73.42   -2.89  O2

**For a gas, SI = log10(fugacity). Fugacity = pressure * phi / 1 atm.
  For ideal gases, phi = 1.

Reaction step 8.

Using solution 1.	Solution after simulation 1.
Using gas phase 1.	Fixed-pressure gas phase
Using reaction 1.	

Reaction 1.	

	  6.400e-02 moles of the following reaction have been added:

	                 Relative
	Reactant            moles

	CH2O(NH3)0.07        1.00000

	                 Relative
	Element             moles
	C                    1.00000
	H                    2.21000
	N                    0.07000
	O                    1.00000

-----------------------------------Gas phase-----------------------------------

Total pressure:  1.10      atmospheres          (Peng-Robinson calculation)
    Gas volume:   1.13e+00 liters
  Molar volume:   2.22e+01 liters/mole
   P * Vm / RT:  0.99636  (Compressibility Factor Z) 

                                                        Moles in gas
                                            ----------------------------------
Component         log P           P    phi     Initial       Final       Delta

CH4(g)            -0.17   6.816e-01  0.998   0.000e+00   3.153e-02   3.153e-02
CO2(g)            -0.43   3.697e-01  0.994   0.000e+00   1.710e-02   1.710e-02
H2O(g)            -1.50   3.162e-02  0.993   0.000e+00   1.463e-03   1.463e-03
N2(g)             -1.77   1.704e-02  1.000   0.000e+00   7.880e-04   7.880e-04

-----------------------------Solution composition------------------------------

	Elements           Molality       Moles

	C                 2.143e-02   2.143e-02
	Ca                2.497e-03   2.497e-03
	N                 2.904e-03   2.904e-03

----------------------------Description of solution----------------------------

                                       pH  =   6.107      Charge balance
                                       pe  =  -2.925      Adjusted to redox equilibrium
      Specific Conductance (µS/cm,  25°C)  = 575
                          Density (g/cm³)  =   0.99762
                               Volume (L)  =   1.00348
                        Viscosity (mPa s)  =   0.89392
                        Activity of water  =   1.000
                 Ionic strength (mol/kgw)  =   1.037e-02
                       Mass of water (kg)  =   9.999e-01
                 Total alkalinity (eq/kg)  =   7.876e-03
                       Total CO2 (mol/kg)  =   2.036e-02
                         Temperature (°C)  =  25.00
                           Pressure (atm)  =  1.10
                  Electrical balance (eq)  =  -1.240e-09
 Percent error, 100*(Cat-|An|)/(Cat+|An|)  =  -0.00
                               Iterations  =  20
                                  Total H  = 1.110248e+02
                                  Total O  = 5.554917e+01

----------------------------Distribution of species----------------------------

                                               Log       Log       Log    mole V
   Species          Molality    Activity  Molality  Activity     Gamma   cm³/mol

   H+              8.566e-07   7.814e-07    -6.067    -6.107    -0.040      0.00
   OH-             1.441e-08   1.295e-08    -7.841    -7.888    -0.046     -4.03
   H2O             5.551e+01   9.995e-01     1.744    -0.000     0.000     18.07
C(-4)         1.070e-03
   CH4             1.070e-03   1.073e-03    -2.970    -2.969     0.001     35.46
C(4)          2.036e-02
   CO2             1.248e-02   1.250e-02    -1.904    -1.903     0.001     34.79
   HCO3-           7.872e-03   7.115e-03    -2.104    -2.148    -0.044     24.70
   (CO2)2          2.538e-06   2.542e-06    -5.596    -5.595     0.001     68.75
   CaCO3           1.191e-06   1.193e-06    -5.924    -5.923     0.001    -14.60
   CO3-2           6.404e-07   4.271e-07    -6.194    -6.370    -0.176     -4.34
   CaHCO3+         1.146e-09   1.038e-09    -8.941    -8.984    -0.043      9.72
Ca            2.497e-03
   Ca+2            2.496e-03   1.663e-03    -2.603    -2.779    -0.176    -17.92
   CaCO3           1.191e-06   1.193e-06    -5.924    -5.923     0.001    -14.60
   CaHCO3+         1.146e-09   1.038e-09    -8.941    -8.984    -0.043      9.72
   CaOH+           3.922e-10   3.531e-10    -9.406    -9.452    -0.046     (0)  
H(0)          6.105e-10
   H2              3.052e-10   3.060e-10    -9.515    -9.514     0.001     14.99
N(-3)         2.882e-03
   NH4+            2.880e-03   2.579e-03    -2.541    -2.589    -0.048     (0)  
   NH3             1.876e-06   1.881e-06    -5.727    -5.726     0.001     (0)  
N(0)          2.269e-05
   N2              1.134e-05   1.137e-05    -4.945    -4.944     0.001     29.29
N(3)          0.000e+00
   NO2-            0.000e+00   0.000e+00   -61.742   -61.789    -0.047     25.03
N(5)          0.000e+00
   NO3-            0.000e+00   0.000e+00   -83.948   -83.995    -0.047     29.56
O(0)          0.000e+00
   O2              0.000e+00   0.000e+00   -73.335   -73.334     0.001     30.40

------------------------------Saturation indices-------------------------------

  Phase               SI** log IAP   log K(298 K,   1 atm)

  Aragonite        -0.81     -9.15   -8.34  CaCO3
  Calcite          -0.70     -9.15   -8.45  CaCO3
  CH4(g)           -0.17     -2.97   -2.80  CH4	 Pressure   0.7 atm, phi 0.998
  CO2(g)           -0.43     -1.90   -1.47  CO2	 Pressure   0.4 atm, phi 0.994
  H2(g)            -6.41     -9.51   -3.10  H2
  H2O(g)           -1.50     -0.00    1.50  H2O	 Pressure   0.0 atm, phi 0.993
  N2(g)            -1.77     -4.94   -3.18  N2	 Pressure   0.0 atm, phi 1.000
  NH3(g)           -7.50     -5.73    1.77  NH3
  O2(g)           -70.44    -73.33   -2.89  O2

**For a gas, SI = log10(fugacity). Fugacity = pressure * phi / 1 atm.
  For ideal gases, phi = 1.

Reaction step 9.

Using solution 1.	Solution after simulation 1.
Using gas phase 1.	Fixed-pressure gas phase
Using reaction 1.	

Reaction 1.	

	  1.250e-01 moles of the following reaction have been added:

	                 Relative
	Reactant            moles

	CH2O(NH3)0.07        1.00000

	                 Relative
	Element             moles
	C                    1.00000
	H                    2.21000
	N                    0.07000
	O                    1.00000

-----------------------------------Gas phase-----------------------------------

Total pressure:  1.10      atmospheres          (Peng-Robinson calculation)
    Gas volume:   2.51e+00 liters
  Molar volume:   2.22e+01 liters/mole
   P * Vm / RT:  0.99620  (Compressibility Factor Z) 

                                                        Moles in gas
                                            ----------------------------------
Component         log P           P    phi     Initial       Final       Delta

CH4(g)            -0.21   6.175e-01  0.998   0.000e+00   6.351e-02   6.351e-02
CO2(g)            -0.37   4.254e-01  0.994   0.000e+00   4.375e-02   4.375e-02
H2O(g)            -1.50   3.163e-02  0.993   0.000e+00   3.253e-03   3.253e-03
N2(g)             -1.59   2.551e-02  1.001   0.000e+00   2.624e-03   2.624e-03

-----------------------------Solution composition------------------------------

	Elements           Molality       Moles

	C                 2.380e-02   2.380e-02
	Ca                2.497e-03   2.497e-03
	N                 3.503e-03   3.503e-03

----------------------------Description of solution----------------------------

                                       pH  =   6.076      Charge balance
                                       pe  =  -2.881      Adjusted to redox equilibrium
      Specific Conductance (µS/cm,  25°C)  = 597
                          Density (g/cm³)  =   0.99768
                               Volume (L)  =   1.00357
                        Viscosity (mPa s)  =   0.89413
                        Activity of water  =   0.999
                 Ionic strength (mol/kgw)  =   1.096e-02
                       Mass of water (kg)  =   9.999e-01
                 Total alkalinity (eq/kg)  =   8.464e-03
                       Total CO2 (mol/kg)  =   2.283e-02
                         Temperature (°C)  =  25.00
                           Pressure (atm)  =  1.10
                  Electrical balance (eq)  =  -1.240e-09
 Percent error, 100*(Cat-|An|)/(Cat+|An|)  =  -0.00
                               Iterations  =  21
                                  Total H  = 1.110281e+02
                                  Total O  = 5.555508e+01

----------------------------Distribution of species----------------------------

                                               Log       Log       Log    mole V
   Species          Molality    Activity  Molality  Activity     Gamma   cm³/mol

   H+              9.211e-07   8.386e-07    -6.036    -6.076    -0.041      0.00
   OH-             1.346e-08   1.207e-08    -7.871    -7.918    -0.048     -4.03
   H2O             5.551e+01   9.995e-01     1.744    -0.000     0.000     18.07
C(-4)         9.696e-04
   CH4             9.696e-04   9.721e-04    -3.013    -3.012     0.001     35.46
C(4)          2.283e-02
   CO2             1.436e-02   1.439e-02    -1.843    -1.842     0.001     34.79
   HCO3-           8.459e-03   7.627e-03    -2.073    -2.118    -0.045     24.71
   (CO2)2          3.359e-06   3.365e-06    -5.474    -5.473     0.001     68.75
   CaCO3           1.178e-06   1.181e-06    -5.929    -5.928     0.001    -14.60
   CO3-2           6.459e-07   4.266e-07    -6.190    -6.370    -0.180     -4.33
   CaHCO3+         1.220e-09   1.102e-09    -8.914    -8.958    -0.044      9.72
Ca            2.497e-03
   Ca+2            2.496e-03   1.648e-03    -2.603    -2.783    -0.180    -17.91
   CaCO3           1.178e-06   1.181e-06    -5.929    -5.928     0.001    -14.60
   CaHCO3+         1.220e-09   1.102e-09    -8.914    -8.958    -0.044      9.72
   CaOH+           3.629e-10   3.259e-10    -9.440    -9.487    -0.047     (0)  
H(0)          5.749e-10
   H2              2.875e-10   2.882e-10    -9.541    -9.540     0.001     14.99
N(-3)         3.469e-03
   NH4+            3.467e-03   3.096e-03    -2.460    -2.509    -0.049     (0)  
   NH3             2.099e-06   2.104e-06    -5.678    -5.677     0.001     (0)  
N(0)          3.397e-05
   N2              1.698e-05   1.703e-05    -4.770    -4.769     0.001     29.29
N(3)          0.000e+00
   NO2-            0.000e+00   0.000e+00   -61.645   -61.693    -0.048     25.04
N(5)          0.000e+00
   NO3-            0.000e+00   0.000e+00   -83.825   -83.873    -0.048     29.56
O(0)          0.000e+00
   O2              0.000e+00   0.000e+00   -73.284   -73.283     0.001     30.40

------------------------------Saturation indices-------------------------------

  Phase               SI** log IAP   log K(298 K,   1 atm)

  Aragonite        -0.82     -9.15   -8.34  CaCO3
  Calcite          -0.71     -9.15   -8.45  CaCO3
  CH4(g)           -0.21     -3.01   -2.80  CH4	 Pressure   0.6 atm, phi 0.998
  CO2(g)           -0.37     -1.84   -1.47  CO2	 Pressure   0.4 atm, phi 0.994
  H2(g)            -6.44     -9.54   -3.10  H2
  H2O(g)           -1.50     -0.00    1.50  H2O	 Pressure   0.0 atm, phi 0.993
  N2(g)            -1.59     -4.77   -3.18  N2	 Pressure   0.0 atm, phi 1.001
  NH3(g)           -7.45     -5.68    1.77  NH3
  O2(g)           -70.39    -73.28   -2.89  O2

**For a gas, SI = log10(fugacity). Fugacity = pressure * phi / 1 atm.
  For ideal gases, phi = 1.

Reaction step 10.

Using solution 1.	Solution after simulation 1.
Using gas phase 1.	Fixed-pressure gas phase
Using reaction 1.	

Reaction 1.	

	  2.500e-01 moles of the following reaction have been added:

	                 Relative
	Reactant            moles

	CH2O(NH3)0.07        1.00000

	                 Relative
	Element             moles
	C                    1.00000
	H                    2.21000
	N                    0.07000
	O                    1.00000

-----------------------------------Gas phase-----------------------------------

Total pressure:  1.10      atmospheres          (Peng-Robinson calculation)
    Gas volume:   5.42e+00 liters
  Molar volume:   2.22e+01 liters/mole
   P * Vm / RT:  0.99611  (Compressibility Factor Z) 

                                                        Moles in gas
                                            ----------------------------------
Component         log P           P    phi     Initial       Final       Delta

CH4(g)            -0.24   5.806e-01  0.998   0.000e+00   1.292e-01   1.292e-01
CO2(g)            -0.34   4.570e-01  0.994   0.000e+00   1.017e-01   1.017e-01
H2O(g)            -1.50   3.163e-02  0.993   0.000e+00   7.041e-03   7.041e-03
N2(g)             -1.51   3.075e-02  1.001   0.000e+00   6.845e-03   6.845e-03

-----------------------------Solution composition------------------------------

	Elements           Molality       Moles

	C                 2.511e-02   2.511e-02
	Ca                2.497e-03   2.497e-03
	N                 3.810e-03   3.810e-03

----------------------------Description of solution----------------------------

                                       pH  =   6.060      Charge balance
                                       pe  =  -2.858      Adjusted to redox equilibrium
      Specific Conductance (µS/cm,  25°C)  = 608
                          Density (g/cm³)  =   0.99770
                               Volume (L)  =   1.00365
                        Viscosity (mPa s)  =   0.89424
                        Activity of water  =   0.999
                 Ionic strength (mol/kgw)  =   1.126e-02
                       Mass of water (kg)  =   9.999e-01
                 Total alkalinity (eq/kg)  =   8.764e-03
                       Total CO2 (mol/kg)  =   2.420e-02
                         Temperature (°C)  =  25.00
                           Pressure (atm)  =  1.10
                  Electrical balance (eq)  =  -1.240e-09
 Percent error, 100*(Cat-|An|)/(Cat+|An|)  =  -0.00
                               Iterations  =  23
                                  Total H  = 1.110339e+02
                                  Total O  = 5.556036e+01

----------------------------Distribution of species----------------------------

                                               Log       Log       Log    mole V
   Species          Molality    Activity  Molality  Activity     Gamma   cm³/mol

   H+              9.577e-07   8.710e-07    -6.019    -6.060    -0.041      0.00
   OH-             1.298e-08   1.162e-08    -7.887    -7.935    -0.048     -4.03
   H2O             5.551e+01   9.995e-01     1.744    -0.000     0.000     18.07
C(-4)         9.117e-04
   CH4             9.117e-04   9.141e-04    -3.040    -3.039     0.001     35.46
C(4)          2.420e-02
   CO2             1.543e-02   1.546e-02    -1.812    -1.811     0.001     34.79
   HCO3-           8.759e-03   7.888e-03    -2.058    -2.103    -0.045     24.71
   (CO2)2          3.877e-06   3.883e-06    -5.412    -5.411     0.001     68.75
   CaCO3           1.167e-06   1.170e-06    -5.933    -5.932     0.001    -14.60
   CO3-2           6.461e-07   4.248e-07    -6.190    -6.372    -0.182     -4.32
   CaHCO3+         1.257e-09   1.134e-09    -8.901    -8.945    -0.045      9.73
Ca            2.497e-03
   Ca+2            2.496e-03   1.640e-03    -2.603    -2.785    -0.182    -17.91
   CaCO3           1.167e-06   1.170e-06    -5.933    -5.932     0.001    -14.60
   CaHCO3+         1.257e-09   1.134e-09    -8.901    -8.945    -0.045      9.73
   CaOH+           3.481e-10   3.123e-10    -9.458    -9.505    -0.047     (0)  
H(0)          5.561e-10
   H2              2.780e-10   2.788e-10    -9.556    -9.555     0.001     14.99
N(-3)         3.769e-03
   NH4+            3.767e-03   3.359e-03    -2.424    -2.474    -0.050     (0)  
   NH3             2.192e-06   2.198e-06    -5.659    -5.658     0.001     (0)  
N(0)          4.095e-05
   N2              2.048e-05   2.053e-05    -4.689    -4.688     0.001     29.29
N(3)          0.000e+00
   NO2-            0.000e+00   0.000e+00   -61.598   -61.647    -0.049     25.04
N(5)          0.000e+00
   NO3-            0.000e+00   0.000e+00   -83.764   -83.813    -0.049     29.56
O(0)          0.000e+00
   O2              0.000e+00   0.000e+00   -73.255   -73.254     0.001     30.40

------------------------------Saturation indices-------------------------------

  Phase               SI** log IAP   log K(298 K,   1 atm)

  Aragonite        -0.82     -9.16   -8.34  CaCO3
  Calcite          -0.71     -9.16   -8.45  CaCO3
  CH4(g)           -0.24     -3.04   -2.80  CH4	 Pressure   0.6 atm, phi 0.998
  CO2(g)           -0.34     -1.81   -1.47  CO2	 Pressure   0.5 atm, phi 0.994
  H2(g)            -6.46     -9.55   -3.10  H2
  H2O(g)           -1.50     -0.00    1.50  H2O	 Pressure   0.0 atm, phi 0.993
  N2(g)            -1.51     -4.69   -3.18  N2	 Pressure   0.0 atm, phi 1.001
  NH3(g)           -7.43     -5.66    1.77  NH3
  O2(g)           -70.36    -73.25   -2.89  O2

**For a gas, SI = log10(fugacity). Fugacity = pressure * phi / 1 atm.
  For ideal gases, phi = 1.

Reaction step 11.

Using solution 1.	Solution after simulation 1.
Using gas phase 1.	Fixed-pressure gas phase
Using reaction 1.	

Reaction 1.	

	  5.000e-01 moles of the following reaction have been added:

	                 Relative
	Reactant            moles

	CH2O(NH3)0.07        1.00000

	                 Relative
	Element             moles
	C                    1.00000
	H                    2.21000
	N                    0.07000
	O                    1.00000

-----------------------------------Gas phase-----------------------------------

Total pressure:  1.10      atmospheres          (Peng-Robinson calculation)
    Gas volume:   1.13e+01 liters
  Molar volume:   2.22e+01 liters/mole
   P * Vm / RT:  0.99606  (Compressibility Factor Z) 

                                                        Moles in gas
                                            ----------------------------------
Component         log P           P    phi     Initial       Final       Delta

CH4(g)            -0.25   5.619e-01  0.998   0.000e+00   2.608e-01   2.608e-01
CO2(g)            -0.33   4.730e-01  0.994   0.000e+00   2.195e-01   2.195e-01
H2O(g)            -1.50   3.164e-02  0.993   0.000e+00   1.468e-02   1.468e-02
N2(g)             -1.48   3.345e-02  1.001   0.000e+00   1.552e-02   1.552e-02

-----------------------------Solution composition------------------------------

	Elements           Molality       Moles

	C                 2.576e-02   2.576e-02
	Ca                2.497e-03   2.497e-03
	N                 3.954e-03   3.954e-03

----------------------------Description of solution----------------------------

                                       pH  =   6.052      Charge balance
                                       pe  =  -2.846      Adjusted to redox equilibrium
      Specific Conductance (µS/cm,  25°C)  = 613
                          Density (g/cm³)  =   0.99772
                               Volume (L)  =   1.00376
                        Viscosity (mPa s)  =   0.89429
                        Activity of water  =   0.999
                 Ionic strength (mol/kgw)  =   1.140e-02
                       Mass of water (kg)  =   1.000e+00
                 Total alkalinity (eq/kg)  =   8.904e-03
                       Total CO2 (mol/kg)  =   2.488e-02
                         Temperature (°C)  =  25.00
                           Pressure (atm)  =  1.10
                  Electrical balance (eq)  =  -1.240e-09
 Percent error, 100*(Cat-|An|)/(Cat+|An|)  =  -0.00
                               Iterations  =  26
                                  Total H  = 1.110450e+02
                                  Total O  = 5.556711e+01

----------------------------Distribution of species----------------------------

                                               Log       Log       Log    mole V
   Species          Molality    Activity  Molality  Activity     Gamma   cm³/mol

   H+              9.766e-07   8.879e-07    -6.010    -6.052    -0.041      0.00
   OH-             1.274e-08   1.139e-08    -7.895    -7.943    -0.048     -4.02
   H2O             5.551e+01   9.995e-01     1.744    -0.000     0.000     18.07
C(-4)         8.823e-04
   CH4             8.823e-04   8.846e-04    -3.054    -3.053     0.001     35.46
C(4)          2.488e-02
   CO2             1.597e-02   1.600e-02    -1.797    -1.796     0.001     34.79
   HCO3-           8.899e-03   8.010e-03    -2.051    -2.096    -0.046     24.72
   (CO2)2          4.153e-06   4.160e-06    -5.382    -5.381     0.001     68.75
   CaCO3           1.160e-06   1.163e-06    -5.936    -5.934     0.001    -14.60
   CO3-2           6.451e-07   4.231e-07    -6.190    -6.374    -0.183     -4.32
   CaHCO3+         1.274e-09   1.149e-09    -8.895    -8.940    -0.045      9.73
Ca            2.497e-03
   Ca+2            2.496e-03   1.636e-03    -2.603    -2.786    -0.183    -17.91
   CaCO3           1.160e-06   1.163e-06    -5.936    -5.934     0.001    -14.60
   CaHCO3+         1.274e-09   1.149e-09    -8.895    -8.940    -0.045      9.73
   CaOH+           3.409e-10   3.056e-10    -9.467    -9.515    -0.047     (0)  
H(0)          5.468e-10
   H2              2.734e-10   2.741e-10    -9.563    -9.562     0.001     14.99
N(-3)         3.909e-03
   NH4+            3.907e-03   3.482e-03    -2.408    -2.458    -0.050     (0)  
   NH3             2.229e-06   2.235e-06    -5.652    -5.651     0.001     (0)  
N(0)          4.454e-05
   N2              2.227e-05   2.233e-05    -4.652    -4.651     0.001     29.29
N(3)          0.000e+00
   NO2-            0.000e+00   0.000e+00   -61.577   -61.626    -0.049     25.04
N(5)          0.000e+00
   NO3-            0.000e+00   0.000e+00   -83.735   -83.785    -0.049     29.56
O(0)          0.000e+00
   O2              0.000e+00   0.000e+00   -73.240   -73.239     0.001     30.40

------------------------------Saturation indices-------------------------------

  Phase               SI** log IAP   log K(298 K,   1 atm)

  Aragonite        -0.82     -9.16   -8.34  CaCO3
  Calcite          -0.71     -9.16   -8.45  CaCO3
  CH4(g)           -0.25     -3.05   -2.80  CH4	 Pressure   0.6 atm, phi 0.998
  CO2(g)           -0.33     -1.80   -1.47  CO2	 Pressure   0.5 atm, phi 0.994
  H2(g)            -6.46     -9.56   -3.10  H2
  H2O(g)           -1.50     -0.00    1.50  H2O	 Pressure   0.0 atm, phi 0.993
  N2(g)            -1.48     -4.65   -3.18  N2	 Pressure   0.0 atm, phi 1.001
  NH3(g)           -7.42     -5.65    1.77  NH3
  O2(g)           -70.35    -73.24   -2.89  O2

**For a gas, SI = log10(fugacity). Fugacity = pressure * phi / 1 atm.
  For ideal gases, phi = 1.

Reaction step 12.

Using solution 1.	Solution after simulation 1.
Using gas phase 1.	Fixed-pressure gas phase
Using reaction 1.	

Reaction 1.	

	  1.000e+00 moles of the following reaction have been added:

	                 Relative
	Reactant            moles

	CH2O(NH3)0.07        1.00000

	                 Relative
	Element             moles
	C                    1.00000
	H                    2.21000
	N                    0.07000
	O                    1.00000

-----------------------------------Gas phase-----------------------------------

Total pressure:  1.10      atmospheres          (Peng-Robinson calculation)
    Gas volume:   2.31e+01 liters
  Molar volume:   2.22e+01 liters/mole
   P * Vm / RT:  0.99604  (Compressibility Factor Z) 

                                                        Moles in gas
                                            ----------------------------------
Component         log P           P    phi     Initial       Final       Delta

CH4(g)            -0.26   5.525e-01  0.998   0.000e+00   5.239e-01   5.239e-01
CO2(g)            -0.32   4.810e-01  0.994   0.000e+00   4.561e-01   4.561e-01
H2O(g)            -1.50   3.164e-02  0.993   0.000e+00   3.000e-02   3.000e-02
N2(g)             -1.46   3.479e-02  1.001   0.000e+00   3.299e-02   3.299e-02

-----------------------------Solution composition------------------------------

	Elements           Molality       Moles

	C                 2.608e-02   2.609e-02
	Ca                2.497e-03   2.497e-03
	N                 4.023e-03   4.024e-03

----------------------------Description of solution----------------------------

                                       pH  =   6.047      Charge balance
                                       pe  =  -2.840      Adjusted to redox equilibrium
      Specific Conductance (µS/cm,  25°C)  = 616
                          Density (g/cm³)  =   0.99772
                               Volume (L)  =   1.00397
                        Viscosity (mPa s)  =   0.89432
                        Activity of water  =   0.999
                 Ionic strength (mol/kgw)  =   1.146e-02
                       Mass of water (kg)  =   1.000e+00
                 Total alkalinity (eq/kg)  =   8.970e-03
                       Total CO2 (mol/kg)  =   2.522e-02
                         Temperature (°C)  =  25.00
                           Pressure (atm)  =  1.10
                  Electrical balance (eq)  =  -1.240e-09
 Percent error, 100*(Cat-|An|)/(Cat+|An|)  =  -0.00
                               Iterations  =  24
                                  Total H  = 1.110669e+02
                                  Total O  = 5.557868e+01

----------------------------Distribution of species----------------------------

                                               Log       Log       Log    mole V
   Species          Molality    Activity  Molality  Activity     Gamma   cm³/mol

   H+              9.863e-07   8.965e-07    -6.006    -6.047    -0.041      0.00
   OH-             1.262e-08   1.129e-08    -7.899    -7.947    -0.049     -4.02
   H2O             5.551e+01   9.994e-01     1.744    -0.000     0.000     18.07
C(-4)         8.676e-04
   CH4             8.676e-04   8.699e-04    -3.062    -3.061     0.001     35.46
C(4)          2.522e-02
   CO2             1.624e-02   1.627e-02    -1.789    -1.789     0.001     34.79
   HCO3-           8.965e-03   8.068e-03    -2.047    -2.093    -0.046     24.72
   (CO2)2          4.295e-06   4.303e-06    -5.367    -5.366     0.001     68.75
   CaCO3           1.156e-06   1.159e-06    -5.937    -5.936     0.001    -14.60
   CO3-2           6.441e-07   4.221e-07    -6.191    -6.375    -0.184     -4.32
   CaHCO3+         1.282e-09   1.156e-09    -8.892    -8.937    -0.045      9.73
Ca            2.497e-03
   Ca+2            2.495e-03   1.634e-03    -2.603    -2.787    -0.184    -17.91
   CaCO3           1.156e-06   1.159e-06    -5.937    -5.936     0.001    -14.60
   CaHCO3+         1.282e-09   1.156e-09    -8.892    -8.937    -0.045      9.73
   CaOH+           3.374e-10   3.024e-10    -9.472    -9.519    -0.048     (0)  
H(0)          5.422e-10
   H2              2.711e-10   2.718e-10    -9.567    -9.566     0.001     14.99
N(-3)         3.977e-03
   NH4+            3.974e-03   3.541e-03    -2.401    -2.451    -0.050     (0)  
   NH3             2.245e-06   2.251e-06    -5.649    -5.648     0.001     (0)  
N(0)          4.633e-05
   N2              2.316e-05   2.323e-05    -4.635    -4.634     0.001     29.29
N(3)          0.000e+00
   NO2-            0.000e+00   0.000e+00   -61.567   -61.617    -0.049     25.04
N(5)          0.000e+00
   NO3-            0.000e+00   0.000e+00   -83.722   -83.771    -0.049     29.56
O(0)          0.000e+00
   O2              0.000e+00   0.000e+00   -73.233   -73.232     0.001     30.40

------------------------------Saturation indices-------------------------------

  Phase               SI** log IAP   log K(298 K,   1 atm)

  Aragonite        -0.83     -9.16   -8.34  CaCO3
  Calcite          -0.71     -9.16   -8.45  CaCO3
  CH4(g)           -0.26     -3.06   -2.80  CH4	 Pressure   0.6 atm, phi 0.998
  CO2(g)           -0.32     -1.79   -1.47  CO2	 Pressure   0.5 atm, phi 0.994
  H2(g)            -6.47     -9.57   -3.10  H2
  H2O(g)           -1.50     -0.00    1.50  H2O	 Pressure   0.0 atm, phi 0.993
  N2(g)            -1.46     -4.63   -3.18  N2	 Pressure   0.0 atm, phi 1.001
  NH3(g)           -7.42     -5.65    1.77  NH3
  O2(g)           -70.34    -73.23   -2.89  O2

**For a gas, SI = log10(fugacity). Fugacity = pressure * phi / 1 atm.
  For ideal gases, phi = 1.

------------------
End of simulation.
------------------

------------------------------------
Reading input data for simulation 3.
------------------------------------

	USE solution 1
	USE reaction 1
	GAS_PHASE 1 Fixed volume gas phase
	        fixed_volume
	        volume         23.19
	        CO2(g)          0.0
	        CH4(g)          0.0
	        N2(g)           0.0
	        H2O(g)          0.0
	        equilibrate 1
	USER_GRAPH 1
	        -headings Fixed_Volume: CH4 CO2 N2 H2O
	  -start
	  10 mM_OM = RXN * 1e3
	  20 PLOT_XY -10, -10, line_width = 0, symbol_size = 0
	  30 PLOT_XY mM_OM, SI("CH4(g)"), color = Black, symbol = Circle
	  40 PLOT_XY mM_OM, SI("CO2(g)"), color = Red, symbol = Circle
	  50 PLOT_XY mM_OM, SI("N2(g)"), color = Teal, symbol = Circle
	  60 PLOT_XY mM_OM, SI("H2O(g)"), color = Blue, symbol = Circle, symbol_size = 5
	  -end
	USER_GRAPH 2
	        -headings Fixed_V:...Pressure Fixed_V:...Volume
	  -start
	  10 mM_OM = RXN * 1e3
	  20 tot_p = SR("CH4(g)") + SR("CO2(g)") + SR("N2(g)") + SR("H2O(g)")
	  30 PLOT_XY mM_OM, LOG10(tot_p), color = Magenta, symbol = Circle
	  40 PLOT_XY mM_OM, 23.19, color = Cyan, line_width = 1 symbol = Circle, y_axis = 2
	  -end
	END
--------------------------------------------------------
Beginning of initial gas_phase-composition calculations.
--------------------------------------------------------

Gas_Phase 1.	Fixed volume gas phase

-----------------------------------Gas phase-----------------------------------

Total pressure:  0.06      atmospheres 
    Gas volume:   2.32e+01 liters
  Molar volume:   3.88e+02 liters/mole

                                                        Moles in gas
                                            ----------------------------------
Component                log P           P     Initial       Final       Delta

CH4(g)                  -21.55   2.820e-22   2.673e-22   2.673e-22   0.000e+00
CO2(g)                   -1.50   3.162e-02   2.997e-02   2.997e-02   0.000e+00
H2O(g)                   -1.50   3.141e-02   2.977e-02   2.977e-02   0.000e+00
N2(g)                   -99.99   0.000e+00   0.000e+00   0.000e+00   0.000e+00


While initializing gas phase composition by equilibrating:
     Found definitions of gas critical temperature and pressure.
     Going to use Peng-Robinson in subsequent calculations.
-----------------------------------------
Beginning of batch-reaction calculations.
-----------------------------------------

Reaction step 1.

Using solution 1.	Solution after simulation 1.
Using gas phase 1.	Gas phase after simulation 3.
Using reaction 1.	

Reaction 1.	

	  1.000e-03 moles of the following reaction have been added:

	                 Relative
	Reactant            moles

	CH2O(NH3)0.07        1.00000

	                 Relative
	Element             moles
	C                    1.00000
	H                    2.21000
	N                    0.07000
	O                    1.00000

-----------------------------------Gas phase-----------------------------------

Total pressure:  0.06      atmospheres          (Peng-Robinson calculation)
    Gas volume:   2.32e+01 liters
  Molar volume:   3.81e+02 liters/mole
   P * Vm / RT:  0.99943  (Compressibility Factor Z) 

                                                        Moles in gas
                                            ----------------------------------
Component         log P           P    phi     Initial       Final       Delta

CH4(g)            -3.26   5.528e-04  1.000   2.673e-22   5.242e-04   5.242e-04
CO2(g)            -1.49   3.208e-02  1.000   2.997e-02   3.042e-02   4.563e-04
H2O(g)            -1.50   3.144e-02  0.999   2.977e-02   2.982e-02   4.337e-05
N2(g)             -4.45   3.527e-05  1.000   0.000e+00   3.345e-05   3.345e-05

-----------------------------Solution composition------------------------------

	Elements           Molality       Moles

	C                 6.080e-03   6.080e-03
	Ca                2.497e-03   2.497e-03
	N                 3.104e-06   3.104e-06

----------------------------Description of solution----------------------------

                                       pH  =   6.973      Charge balance
                                       pe  =  -3.537      Adjusted to redox equilibrium
      Specific Conductance (µS/cm,  25°C)  = 466
                          Density (g/cm³)  =   0.99734
                               Volume (L)  =   1.00308
                        Viscosity (mPa s)  =   0.89278
                        Activity of water  =   1.000
                 Ionic strength (mol/kgw)  =   7.480e-03
                       Mass of water (kg)  =   1.000e+00
                 Total alkalinity (eq/kg)  =   4.998e-03
                       Total CO2 (mol/kg)  =   6.079e-03
                         Temperature (°C)  =  25.00
                           Pressure (atm)  =  0.06
                  Electrical balance (eq)  =  -1.240e-09
 Percent error, 100*(Cat-|An|)/(Cat+|An|)  =  -0.00
[...]

                                               Log       Log       Log    mole V
   Species          Molality    Activity  Molality  Activity     Gamma   cm³/mol

   H+              3.069e-07   2.826e-07    -6.513    -6.549    -0.036      0.00
   OH-             3.936e-08   3.581e-08    -7.405    -7.446    -0.041     -4.05
   H2O             5.551e+01   9.998e-01     1.744    -0.000     0.000     18.07
C(-4)         1.088e-04
   CH4             1.088e-04   1.090e-04    -3.963    -3.963     0.001     35.45
C(4)          8.475e-03
   HCO3-           5.361e-03   4.900e-03    -2.271    -2.310    -0.039     24.67
   CO2             3.110e-03   3.114e-03    -2.507    -2.507     0.001     34.79
   CaCO3           2.372e-06   2.377e-06    -5.625    -5.624     0.001    -14.60
   CO3-2           1.166e-06   8.133e-07    -5.933    -6.090    -0.156     -4.41
   (CO2)2          1.574e-07   1.576e-07    -6.803    -6.802     0.001     68.75
   CaHCO3+         8.166e-10   7.474e-10    -9.088    -9.126    -0.038      9.71
Ca            2.497e-03
   Ca+2            2.495e-03   1.740e-03    -2.603    -2.760    -0.157    -17.97
   CaCO3           2.372e-06   2.377e-06    -5.625    -5.624     0.001    -14.60
   CaOH+           1.121e-09   1.021e-09    -8.950    -8.991    -0.040     (0)  
   CaHCO3+         8.166e-10   7.474e-10    -9.088    -9.126    -0.038      9.71
H(0)          4.882e-10
   H2              2.441e-10   2.446e-10    -9.612    -9.612     0.001     14.99
N(-3)         3.742e-04
   NH4+            3.736e-04   3.390e-04    -3.428    -3.470    -0.042     (0)  
   NH3             6.824e-07   6.837e-07    -6.166    -6.165     0.001     (0)  
N(0)          5.878e-06
   N2              2.939e-06   2.944e-06    -5.532    -5.531     0.001     29.29
N(3)          0.000e+00
   NO2-            0.000e+00   0.000e+00   -61.453   -61.494    -0.042     25.02
N(5)          0.000e+00
   NO3-            0.000e+00   0.000e+00   -83.561   -83.603    -0.042     29.54
O(0)          0.000e+00
   O2              0.000e+00   0.000e+00   -73.140   -73.140     0.001     30.40

------------------------------Saturation indices-------------------------------

  Phase               SI** log IAP   log K(298 K,   0 atm)

  Aragonite        -0.51     -8.85   -8.34  CaCO3
  Calcite          -0.40     -8.85   -8.45  CaCO3
  CH4(g)           -1.16     -3.96   -2.80  CH4	 Pressure   0.1 atm, phi 1.000
  CO2(g)           -1.04     -2.51   -1.47  CO2	 Pressure   0.1 atm, phi 0.999
  H2(g)            -6.51     -9.61   -3.10  H2
  H2O(g)           -1.50     -0.00    1.50  H2O	 Pressure   0.0 atm, phi 0.998
  N2(g)            -2.36     -5.53   -3.18  N2	 Pressure   0.0 atm, phi 1.000
  NH3(g)           -7.94     -6.17    1.77  NH3
  O2(g)           -70.25    -73.14   -2.89  O2

**For a gas, SI = log10(fugacity). Fugacity = pressure * phi / 1 atm.
  For ideal gases, phi = 1.

Reaction step 10.

Using solution 1.	Solution after simulation 1.
Using gas phase 1.	Gas phase after simulation 3.
Using reaction 1.	

Reaction 1.	

	  2.500e-01 moles of the following reaction have been added:

	                 Relative
	Reactant            moles

	CH2O(NH3)0.07        1.00000

	                 Relative
	Element             moles
	C                    1.00000
	H                    2.21000
	N                    0.07000
	O                    1.00000

-----------------------------------Gas phase-----------------------------------

Total pressure:  0.33      atmospheres          (Peng-Robinson calculation)
    Gas volume:   2.32e+01 liters
  Molar volume:   7.41e+01 liters/mole
   P * Vm / RT:  0.99866  (Compressibility Factor Z) 

                                                        Moles in gas
                                            ----------------------------------
Component         log P           P    phi     Initial       Final       Delta

CH4(g)            -0.86   1.380e-01  0.999   2.673e-22   1.310e-01   1.310e-01
CO2(g)            -0.82   1.515e-01  0.998   2.997e-02   1.438e-01   1.138e-01
H2O(g)            -1.50   3.150e-02  0.997   2.977e-02   2.989e-02   1.178e-04
N2(g)             -2.06   8.759e-03  1.000   0.000e+00   8.313e-03   8.313e-03

-----------------------------Solution composition------------------------------

	Elements           Molality       Moles

	C                 1.121e-02   1.121e-02
	Ca                2.497e-03   2.497e-03
	N                 8.731e-04   8.732e-04

----------------------------Description of solution----------------------------

                                       pH  =   6.368      Charge balance
                                       pe  =  -3.147      Adjusted to redox equilibrium
      Specific Conductance (µS/cm,  25°C)  = 499
                          Density (g/cm³)  =   0.99743
                               Volume (L)  =   1.00345
                        Viscosity (mPa s)  =   0.89317
                        Activity of water  =   1.000
                 Ionic strength (mol/kgw)  =   8.347e-03
                       Mass of water (kg)  =   1.000e+00
                 Total alkalinity (eq/kg)  =   5.855e-03
                       Total CO2 (mol/kg)  =   1.099e-02
                         Temperature (°C)  =  25.00
                           Pressure (atm)  =  0.33
                  Electrical balance (eq)  =  -1.240e-09
 Percent error, 100*(Cat-|An|)/(Cat+|An|)  =  -0.00
                               Iterations  =  32
                                  Total H  = 1.110406e+02
                                  Total O  = 5.554306e+01

----------------------------Distribution of species----------------------------

                                               Log       Log       Log    mole V
   Species          Molality    Activity  Molality  Activity     Gamma   cm³/mol

   H+              4.668e-07   4.290e-07    -6.331    -6.368    -0.037      0.00
   OH-             2.600e-08   2.359e-08    -7.585    -7.627    -0.042     -4.05
   H2O             5.551e+01   9.998e-01     1.744    -0.000     0.000     18.07
C(-4)         2.173e-04
   CH4             2.173e-04   2.177e-04    -3.663    -3.662     0.001     35.45
C(4)          1.099e-02
   HCO3-           5.849e-03   5.334e-03    -2.233    -2.273    -0.040     24.68
   CO2             5.139e-03   5.146e-03    -2.289    -2.289     0.001     34.79
   CaCO3           1.685e-06   1.688e-06    -5.773    -5.773     0.001    -14.60
   CO3-2           8.437e-07   5.832e-07    -6.074    -6.234    -0.160     -4.40
   (CO2)2          4.299e-07   4.305e-07    -6.367    -6.366     0.001     68.75
   CaHCO3+         8.827e-10   8.060e-10    -9.054    -9.094    -0.039      9.71
Ca            2.497e-03
   Ca+2            2.495e-03   1.723e-03    -2.603    -2.764    -0.161    -17.96
   CaCO3           1.685e-06   1.688e-06    -5.773    -5.773     0.001    -14.60
   CaHCO3+         8.827e-10   8.060e-10    -9.054    -9.094    -0.039      9.71
   CaOH+           7.333e-10   6.666e-10    -9.135    -9.176    -0.041     (0)  
H(0)          5.118e-10
   H2              2.559e-10   2.564e-10    -9.592    -9.591     0.001     14.99
N(-3)         8.614e-04
   NH4+            8.604e-04   7.786e-04    -3.065    -3.109    -0.043     (0)  
   NH3             1.032e-06   1.034e-06    -5.986    -5.985     0.001     (0)  
N(0)          1.167e-05
   N2              5.835e-06   5.846e-06    -5.234    -5.233     0.001     29.29
N(3)          0.000e+00
   NO2-            0.000e+00   0.000e+00   -61.515   -61.558    -0.043     25.02
N(5)          0.000e+00
   NO3-            0.000e+00   0.000e+00   -83.644   -83.687    -0.043     29.55
O(0)          0.000e+00
   O2              0.000e+00   0.000e+00   -73.182   -73.181     0.001     30.40

------------------------------Saturation indices-------------------------------

  Phase               SI** log IAP   log K(298 K,   0 atm)

  Aragonite        -0.66     -9.00   -8.34  CaCO3
  Calcite          -0.55     -9.00   -8.45  CaCO3
  CH4(g)           -0.86     -3.66   -2.80  CH4	 Pressure   0.1 atm, phi 0.999
  CO2(g)           -0.82     -2.29   -1.47  CO2	 Pressure   0.2 atm, phi 0.998
  H2(g)            -6.49     -9.59   -3.10  H2
  H2O(g)           -1.50     -0.00    1.50  H2O	 Pressure   0.0 atm, phi 0.997
  N2(g)            -2.06     -5.23   -3.18  N2	 Pressure   0.0 atm, phi 1.000
  NH3(g)           -7.76     -5.99    1.77  NH3
  O2(g)           -70.29    -73.18   -2.89  O2

**For a gas, SI = log10(fugacity). Fugacity = pressure * phi / 1 atm.
  For ideal gases, phi = 1.

Reaction step 11.

Using solution 1.	Solution after simulation 1.
Using gas phase 1.	Gas phase after simulation 3.
Using reaction 1.	

Reaction 1.	

	  5.000e-01 moles of the following reaction have been added:

	                 Relative
	Reactant            moles

	CH2O(NH3)0.07        1.00000

	                 Relative
	Element             moles
	C                    1.00000
	H                    2.21000
	N                    0.07000
	O                    1.00000

-----------------------------------Gas phase-----------------------------------

Total pressure:  0.60      atmospheres          (Peng-Robinson calculation)
    Gas volume:   2.32e+01 liters
  Molar volume:   4.10e+01 liters/mole
   P * Vm / RT:  0.99774  (Compressibility Factor Z) 

                                                        Moles in gas
                                            ----------------------------------
Component         log P           P    phi     Initial       Final       Delta

CH4(g)            -0.56   2.758e-01  0.999   2.673e-22   2.620e-01   2.620e-01
CO2(g)            -0.57   2.711e-01  0.997   2.997e-02   2.575e-01   2.275e-01
H2O(g)            -1.50   3.154e-02  0.996   2.977e-02   2.997e-02   1.923e-04
N2(g)             -1.76   1.739e-02  1.000   0.000e+00   1.652e-02   1.652e-02

-----------------------------Solution composition------------------------------

	Elements           Molality       Moles

	C                 1.654e-02   1.654e-02
	Ca                2.496e-03   2.497e-03
	N                 1.954e-03   1.955e-03

----------------------------Description of solution----------------------------

                                       pH  =   6.186      Charge balance
                                       pe  =  -2.972      Adjusted to redox equilibrium
      Specific Conductance (µS/cm,  25°C)  = 539
                          Density (g/cm³)  =   0.99753
                               Volume (L)  =   1.00381
                        Viscosity (mPa s)  =   0.89358
                        Activity of water  =   1.000
                 Ionic strength (mol/kgw)  =   9.416e-03
                       Mass of water (kg)  =   1.000e+00
                 Total alkalinity (eq/kg)  =   6.923e-03
                       Total CO2 (mol/kg)  =   1.610e-02
                         Temperature (°C)  =  25.00
                           Pressure (atm)  =  0.60
                  Electrical balance (eq)  =  -1.240e-09
 Percent error, 100*(Cat-|An|)/(Cat+|An|)  =  -0.00
                               Iterations  =  33
                                  Total H  = 1.110692e+02
                                  Total O  = 5.556554e+01

----------------------------Distribution of species----------------------------

                                               Log       Log       Log    mole V
   Species          Molality    Activity  Molality  Activity     Gamma   cm³/mol

   H+              7.113e-07   6.510e-07    -6.148    -6.186    -0.038      0.00
   OH-             1.722e-08   1.554e-08    -7.764    -7.809    -0.045     -4.04
   H2O             5.551e+01   9.996e-01     1.744    -0.000     0.000     18.07
C(-4)         4.337e-04
   CH4             4.337e-04   4.347e-04    -3.363    -3.362     0.001     35.45
C(4)          1.610e-02
   CO2             9.181e-03   9.194e-03    -2.037    -2.037     0.001     34.79
   HCO3-           6.919e-03   6.279e-03    -2.160    -2.202    -0.042     24.69
   (CO2)2          1.372e-06   1.374e-06    -5.863    -5.862     0.001     68.75
   CaCO3           1.281e-06   1.284e-06    -5.892    -5.891     0.001    -14.60
   CO3-2           6.673e-07   4.523e-07    -6.176    -6.345    -0.169     -4.37
   CaHCO3+         1.024e-09   9.303e-10    -8.990    -9.031    -0.042      9.72
Ca            2.496e-03
   Ca+2            2.495e-03   1.690e-03    -2.603    -2.772    -0.169    -17.94
   CaCO3           1.281e-06   1.284e-06    -5.892    -5.891     0.001    -14.60
   CaHCO3+         1.024e-09   9.303e-10    -8.990    -9.031    -0.042      9.72
   CaOH+           4.762e-10   4.306e-10    -9.322    -9.366    -0.044     (0)  
H(0)          5.261e-10
   H2              2.630e-10   2.636e-10    -9.580    -9.579     0.001     14.99
N(-3)         1.931e-03
   NH4+            1.929e-03   1.736e-03    -2.715    -2.760    -0.046     (0)  
   NH3             1.516e-06   1.520e-06    -5.819    -5.818     0.001     (0)  
N(0)          2.317e-05
   N2              1.158e-05   1.161e-05    -4.936    -4.935     0.001     29.29
N(3)          0.000e+00
   NO2-            0.000e+00   0.000e+00   -61.563   -61.608    -0.045     25.03
N(5)          0.000e+00
   NO3-            0.000e+00   0.000e+00   -83.704   -83.749    -0.045     29.55
O(0)          0.000e+00
   O2              0.000e+00   0.000e+00   -73.206   -73.205     0.001     30.40

------------------------------Saturation indices-------------------------------

  Phase               SI** log IAP   log K(298 K,   1 atm)

  Aragonite        -0.78     -9.12   -8.34  CaCO3
  Calcite          -0.67     -9.12   -8.45  CaCO3
  CH4(g)           -0.56     -3.36   -2.80  CH4	 Pressure   0.3 atm, phi 0.999
  CO2(g)           -0.57     -2.04   -1.47  CO2	 Pressure   0.3 atm, phi 0.997
  H2(g)            -6.48     -9.58   -3.10  H2
  H2O(g)           -1.50     -0.00    1.50  H2O	 Pressure   0.0 atm, phi 0.996
  N2(g)            -1.76     -4.94   -3.18  N2	 Pressure   0.0 atm, phi 1.000
  NH3(g)           -7.59     -5.82    1.77  NH3
  O2(g)           -70.31    -73.20   -2.89  O2

**For a gas, SI = log10(fugacity). Fugacity = pressure * phi / 1 atm.
  For ideal gases, phi = 1.

Reaction step 12.

Using solution 1.	Solution after simulation 1.
Using gas phase 1.	Gas phase after simulation 3.
Using reaction 1.	

Reaction 1.	

	  1.000e+00 moles of the following reaction have been added:

	                 Relative
	Reactant            moles

	CH2O(NH3)0.07        1.00000

	                 Relative
	Element             moles
	C                    1.00000
	H                    2.21000
	N                    0.07000
	O                    1.00000

-----------------------------------Gas phase-----------------------------------

Total pressure:  1.13      atmospheres          (Peng-Robinson calculation)
    Gas volume:   2.32e+01 liters
  Molar volume:   2.16e+01 liters/mole
   P * Vm / RT:  0.99589  (Compressibility Factor Z) 

                                                        Moles in gas
                                            ----------------------------------
Component         log P           P    phi     Initial       Final       Delta

CH4(g)            -0.26   5.504e-01  0.998   2.673e-22   5.239e-01   5.239e-01
CO2(g)            -0.29   5.096e-01  0.994   2.997e-02   4.850e-01   4.551e-01
H2O(g)            -1.50   3.165e-02  0.992   2.977e-02   3.012e-02   3.446e-04
N2(g)             -1.46   3.461e-02  1.001   0.000e+00   3.294e-02   3.294e-02

-----------------------------Solution composition------------------------------

	Elements           Molality       Moles

	C                 2.713e-02   2.715e-02
	Ca                2.495e-03   2.497e-03
	N                 4.114e-03   4.117e-03

----------------------------Description of solution----------------------------

                                       pH  =   6.027      Charge balance
                                       pe  =  -2.815      Adjusted to redox equilibrium
      Specific Conductance (µS/cm,  25°C)  = 619
                          Density (g/cm³)  =   0.99774
                               Volume (L)  =   1.00454
                        Viscosity (mPa s)  =   0.89439
                        Activity of water  =   0.999
                 Ionic strength (mol/kgw)  =   1.155e-02
                       Mass of water (kg)  =   1.001e+00
                 Total alkalinity (eq/kg)  =   9.059e-03
                       Total CO2 (mol/kg)  =   2.627e-02
                         Temperature (°C)  =  25.00
                           Pressure (atm)  =  1.13
                  Electrical balance (eq)  =  -1.230e-09
 Percent error, 100*(Cat-|An|)/(Cat+|An|)  =  -0.00
                               Iterations  =  35
                                  Total H  = 1.111263e+02
                                  Total O  = 5.561039e+01

----------------------------Distribution of species----------------------------

                                               Log       Log       Log    mole V
   Species          Molality    Activity  Molality  Activity     Gamma   cm³/mol

   H+              1.035e-06   9.405e-07    -5.985    -6.027    -0.042      0.00
   OH-             1.204e-08   1.076e-08    -7.920    -7.968    -0.049     -4.02
   H2O             5.551e+01   9.994e-01     1.744    -0.000     0.000     18.07
C(-4)         8.641e-04
   CH4             8.641e-04   8.664e-04    -3.063    -3.062     0.001     35.46
C(4)          2.627e-02
   CO2             1.720e-02   1.723e-02    -1.764    -1.764     0.001     34.79
   HCO3-           9.054e-03   8.145e-03    -2.043    -2.089    -0.046     24.72
   (CO2)2          4.819e-06   4.827e-06    -5.317    -5.316     0.001     68.75
   CaCO3           1.110e-06   1.113e-06    -5.955    -5.954     0.001    -14.60
   CO3-2           6.207e-07   4.062e-07    -6.207    -6.391    -0.184     -4.31
   CaHCO3+         1.293e-09   1.165e-09    -8.889    -8.934    -0.045      9.73
Ca            2.495e-03
   Ca+2            2.494e-03   1.631e-03    -2.603    -2.788    -0.184    -17.91
   CaCO3           1.110e-06   1.113e-06    -5.955    -5.954     0.001    -14.60
   CaHCO3+         1.293e-09   1.165e-09    -8.889    -8.934    -0.045      9.73
   CaOH+           3.211e-10   2.876e-10    -9.493    -9.541    -0.048     (0)  
H(0)          5.339e-10
   H2              2.670e-10   2.677e-10    -9.574    -9.572     0.001     14.99
N(-3)         4.068e-03
   NH4+            4.066e-03   3.621e-03    -2.391    -2.441    -0.050     (0)  
   NH3             2.188e-06   2.194e-06    -5.660    -5.659     0.001     (0)  
N(0)          4.609e-05
   N2              2.304e-05   2.310e-05    -4.637    -4.636     0.001     29.29
N(3)          0.000e+00
   NO2-            0.000e+00   0.000e+00   -61.579   -61.628    -0.050     25.04
N(5)          0.000e+00
   NO3-            0.000e+00   0.000e+00   -83.727   -83.776    -0.050     29.56
O(0)          0.000e+00
   O2              0.000e+00   0.000e+00   -73.220   -73.218     0.001     30.40

------------------------------Saturation indices-------------------------------

  Phase               SI** log IAP   log K(298 K,   1 atm)

  Aragonite        -0.84     -9.18   -8.34  CaCO3
  Calcite          -0.73     -9.18   -8.45  CaCO3
  CH4(g)           -0.26     -3.06   -2.80  CH4	 Pressure   0.6 atm, phi 0.998
  CO2(g)           -0.30     -1.76   -1.47  CO2	 Pressure   0.5 atm, phi 0.994
  H2(g)            -6.47     -9.57   -3.10  H2
  H2O(g)           -1.50     -0.00    1.50  H2O	 Pressure   0.0 atm, phi 0.992
  N2(g)            -1.46     -4.64   -3.18  N2	 Pressure   0.0 atm, phi 1.001
  NH3(g)           -7.43     -5.66    1.77  NH3
  O2(g)           -70.33    -73.22   -2.89  O2

**For a gas, SI = log10(fugacity). Fugacity = pressure * phi / 1 atm.
  For ideal gases, phi = 1.

------------------
End of simulation.
------------------

------------------------------------
Reading input data for simulation 4.
------------------------------------

